CHEMBL1607198
     RDKit          3D

  0  0  0  0  0  0  0  0  0  0999 V3000
M  V30 BEGIN CTAB
M  V30 COUNTS 55 58 0 0 0
M  V30 BEGIN ATOM
M  V30 1 C 8.512049 -3.712278 0.767862 0
M  V30 2 C 8.150908 -2.480095 1.571550 0
M  V30 3 O 6.898373 -2.009720 1.107978 0
M  V30 4 C 6.299359 -0.867439 1.670388 0
M  V30 5 C 6.923566 -0.175580 2.693147 0
M  V30 6 C 6.248873 0.937069 3.177918 0
M  V30 7 C 5.020692 1.322622 2.658685 0
M  V30 8 C 4.430009 0.606211 1.638112 0
M  V30 9 C 3.138646 0.963466 1.051019 0
M  V30 10 O 2.619783 0.277048 0.105854 0
M  V30 11 N 2.380702 2.061202 1.465349 0
M  V30 12 C 1.155831 2.131324 0.678826 0
M  V30 13 N 0.023724 1.719710 0.721037 0
M  V30 14 C -0.912299 1.946855 -0.160144 0
M  V30 15 C -2.252407 1.401660 -0.016584 0
M  V30 16 C -2.642229 0.613019 1.042323 0
M  V30 17 C -3.891392 0.065236 1.240060 0
M  V30 18 C -4.838112 0.339761 0.276506 0
M  V30 19 S -6.431316 -0.352747 0.518802 0
M  V30 20 O -7.481891 0.576006 -0.022665 0
M  V30 21 O -6.681003 -0.536298 2.001106 0
M  V30 22 N -6.483286 -1.880777 -0.217592 0
M  V30 23 C -6.274089 -1.886617 -1.620226 0
M  V30 24 C -5.803675 -3.181027 -2.190343 0
M  V30 25 O -4.790156 -3.764403 -1.408392 0
M  V30 26 C -5.405790 -4.110528 -0.209626 0
M  V30 27 C -5.941948 -2.942834 0.541370 0
M  V30 28 C -4.524635 1.122059 -0.814121 0
M  V30 29 C -3.245352 1.626334 -0.925063 0
M  V30 30 C -0.517489 2.767816 -1.268436 0
M  V30 31 S 1.293614 3.105821 -0.818599 0
M  V30 32 C 5.079259 -0.517781 1.126059 0
M  V30 33 H 7.559074 -4.202651 0.481395 0
M  V30 34 H 9.163439 -4.414152 1.333289 0
M  V30 35 H 8.995175 -3.340806 -0.163903 0
M  V30 36 H 8.010266 -2.725142 2.652575 0
M  V30 37 H 8.955396 -1.734144 1.424108 0
M  V30 38 H 7.880103 -0.509135 3.069085 0
M  V30 39 H 6.702846 1.518057 3.988275 0
M  V30 40 H 4.506077 2.189205 3.043766 0
M  V30 41 H 2.704085 2.675923 2.214145 0
M  V30 42 H -1.891652 0.388491 1.817339 0
M  V30 43 H -4.091923 -0.539479 2.106059 0
M  V30 44 H -7.261884 -1.649174 -2.111839 0
M  V30 45 H -5.581523 -1.069509 -1.937662 0
M  V30 46 H -6.625977 -3.911856 -2.373989 0
M  V30 47 H -5.336192 -2.979651 -3.176248 0
M  V30 48 H -6.200788 -4.872909 -0.338892 0
M  V30 49 H -4.606402 -4.585684 0.426754 0
M  V30 50 H -6.746735 -3.340723 1.226696 0
M  V30 51 H -5.175838 -2.510849 1.242270 0
M  V30 52 H -5.294018 1.313715 -1.546422 0
M  V30 53 H -3.088992 2.222954 -1.802294 0
M  V30 54 H -1.315429 3.058703 -2.176641 0
M  V30 55 H 4.627652 -1.087215 0.327221 0
M  V30 END ATOM
M  V30 BEGIN BOND
M  V30 1 1 1 2
M  V30 2 1 2 3
M  V30 3 1 3 4
M  V30 4 2 4 5
M  V30 5 1 5 6
M  V30 6 2 6 7
M  V30 7 1 7 8
M  V30 8 1 8 9
M  V30 9 2 9 10
M  V30 10 1 9 11
M  V30 11 1 11 12
M  V30 12 2 12 13
M  V30 13 1 13 14
M  V30 14 1 14 15
M  V30 15 2 15 16
M  V30 16 1 16 17
M  V30 17 2 17 18
M  V30 18 1 18 19
M  V30 19 2 19 20
M  V30 20 2 19 21
M  V30 21 1 19 22
M  V30 22 1 22 23
M  V30 23 1 23 24
M  V30 24 1 24 25
M  V30 25 1 25 26
M  V30 26 1 26 27
M  V30 27 1 18 28
M  V30 28 2 28 29
M  V30 29 2 14 30
M  V30 30 1 30 31
M  V30 31 2 8 32
M  V30 32 1 32 4
M  V30 33 1 31 12
M  V30 34 1 29 15
M  V30 35 1 27 22
M  V30 36 1 1 33
M  V30 37 1 1 34
M  V30 38 1 1 35
M  V30 39 1 2 36
M  V30 40 1 2 37
M  V30 41 1 5 38
M  V30 42 1 6 39
M  V30 43 1 7 40
M  V30 44 1 11 41
M  V30 45 1 16 42
M  V30 46 1 17 43
M  V30 47 1 23 44
M  V30 48 1 23 45
M  V30 49 1 24 46
M  V30 50 1 24 47
M  V30 51 1 26 48
M  V30 52 1 26 49
M  V30 53 1 27 50
M  V30 54 1 27 51
M  V30 55 1 28 52
M  V30 56 1 29 53
M  V30 57 1 30 54
M  V30 58 1 32 55
M  V30 END BOND
M  V30 END CTAB
M  END
>  <Dataset>  (1) 
ChEMBL_Kinases

>  <Ligand_Instance>  (1) 
nan

>  <PDB_ID>  (1) 
nan

>  <Standardized_SMILES>  (1) 
CCOc1cccc(C(=O)Nc2nc(-c3ccc(S(=O)(=O)N4CCOCC4)cc3)cs2)c1

>  <Name>  (1) 
nan

>  <Pocket>  (1) 
nan

>  <ATP_Site>  (1) 
nan

>  <Peripheral>  (1) 
nan

>  <Num_H_Atoms_ProtBoundConf>  (1) 
nan

>  <Num_Resolved_Atoms>  (1) 
nan

>  <Num_Not_Resolved_Atoms>  (1) 
nan

$$$$
CHEMBL1607203
     RDKit          3D

  0  0  0  0  0  0  0  0  0  0999 V3000
M  V30 BEGIN CTAB
M  V30 COUNTS 37 39 0 0 0
M  V30 BEGIN ATOM
M  V30 1 C -0.501613 -3.963567 0.876592 0
M  V30 2 C -0.060504 -2.601696 1.246984 0
M  V30 3 N 0.463477 -1.745608 0.451814 0
M  V30 4 N 0.776663 -0.545164 1.093509 0
M  V30 5 C 1.765592 0.417678 0.723412 0
M  V30 6 O 1.997616 1.473371 1.339788 0
M  V30 7 C 2.565855 0.156507 -0.457714 0
M  V30 8 C 3.261887 -1.045117 -0.470445 0
M  V30 9 C 4.055201 -1.407747 -1.533321 0
M  V30 10 C 4.202734 -0.604001 -2.638018 0
M  V30 11 Br 5.314834 -1.157134 -4.081394 0
M  V30 12 C 3.506964 0.597373 -2.625508 0
M  V30 13 C 2.713982 0.966530 -1.570023 0
M  V30 14 C -0.143045 -0.521935 2.216224 0
M  V30 15 O 0.340776 0.240448 3.260402 0
M  V30 16 C -1.470862 -0.009578 1.809380 0
M  V30 17 C -2.651616 -0.745634 1.749953 0
M  V30 18 C -3.828251 -0.113544 1.344237 0
M  V30 19 C -3.863822 1.216386 0.999370 0
M  V30 20 C -2.678078 1.926569 1.066405 0
M  V30 21 C -1.501643 1.326188 1.464031 0
M  V30 22 C -0.141264 -1.982792 2.587186 0
M  V30 23 H -1.398947 -3.965611 0.219844 0
M  V30 24 H -0.807750 -4.523823 1.802621 0
M  V30 25 H 0.333468 -4.476148 0.354287 0
M  V30 26 H 3.207789 -1.737636 0.348781 0
M  V30 27 H 4.588964 -2.348610 -1.522900 0
M  V30 28 H 3.613144 1.237606 -3.484898 0
M  V30 29 H 2.166299 1.890247 -1.537296 0
M  V30 30 H -0.453118 0.472990 3.826864 0
M  V30 31 H -2.574307 -1.784616 2.029704 0
M  V30 32 H -4.728957 -0.739467 1.315256 0
M  V30 33 H -4.833976 1.593984 0.701280 0
M  V30 34 H -2.795311 2.978863 0.774953 0
M  V30 35 H -0.691025 2.040650 1.451764 0
M  V30 36 H 0.834865 -2.165441 3.108192 0
M  V30 37 H -0.988376 -2.306945 3.201654 0
M  V30 END ATOM
M  V30 BEGIN BOND
M  V30 1 1 1 2
M  V30 2 2 2 3
M  V30 3 1 3 4
M  V30 4 1 4 5
M  V30 5 2 5 6
M  V30 6 1 5 7
M  V30 7 2 7 8
M  V30 8 1 8 9
M  V30 9 2 9 10
M  V30 10 1 10 11
M  V30 11 1 10 12
M  V30 12 2 12 13
M  V30 13 1 4 14
M  V30 14 1 14 15
M  V30 15 1 14 16
M  V30 16 2 16 17
M  V30 17 1 17 18
M  V30 18 2 18 19
M  V30 19 1 19 20
M  V30 20 2 20 21
M  V30 21 1 14 22
M  V30 22 1 22 2
M  V30 23 1 13 7
M  V30 24 1 21 16
M  V30 25 1 1 23
M  V30 26 1 1 24
M  V30 27 1 1 25
M  V30 28 1 8 26
M  V30 29 1 9 27
M  V30 30 1 12 28
M  V30 31 1 13 29
M  V30 32 1 15 30
M  V30 33 1 17 31
M  V30 34 1 18 32
M  V30 35 1 19 33
M  V30 36 1 20 34
M  V30 37 1 21 35
M  V30 38 1 22 36
M  V30 39 1 22 37
M  V30 END BOND
M  V30 END CTAB
M  END
>  <Dataset>  (2) 
ChEMBL_Kinases

>  <Ligand_Instance>  (2) 
nan

>  <PDB_ID>  (2) 
nan

>  <Standardized_SMILES>  (2) 
CC1=NN(C(=O)c2ccc(Br)cc2)C(O)(c2ccccc2)C1

>  <Name>  (2) 
nan

>  <Pocket>  (2) 
nan

>  <ATP_Site>  (2) 
nan

>  <Peripheral>  (2) 
nan

>  <Num_H_Atoms_ProtBoundConf>  (2) 
nan

>  <Num_Resolved_Atoms>  (2) 
nan

>  <Num_Not_Resolved_Atoms>  (2) 
nan

$$$$
CHEMBL1607270
     RDKit          3D

  0  0  0  0  0  0  0  0  0  0999 V3000
M  V30 BEGIN CTAB
M  V30 COUNTS 34 36 0 0 0
M  V30 BEGIN ATOM
M  V30 1 C -0.668368 -3.810281 4.589261 0
M  V30 2 C -0.074266 -3.193115 3.359341 0
M  V30 3 C 1.017649 -3.818566 2.765196 0
M  V30 4 C 1.539108 -3.207272 1.619739 0
M  V30 5 C 0.965282 -2.046314 1.143864 0
M  V30 6 C 1.566039 -1.468468 -0.056092 0
M  V30 7 O 2.551993 -2.054272 -0.572870 0
M  V30 8 N 1.118047 -0.281391 -0.693214 0
M  V30 9 C 1.765945 0.206321 -1.859045 0
M  V30 10 S 3.046552 -0.631361 -2.457525 0
M  V30 11 N 1.292367 1.399462 -2.474060 0
M  V30 12 C 0.195243 1.818783 -1.678901 0
M  V30 13 C 0.446935 2.662287 -0.626660 0
M  V30 14 C -0.589490 3.090079 0.166003 0
M  V30 15 C -1.852306 2.645529 -0.137094 0
M  V30 16 C -2.072143 1.805336 -1.192076 0
M  V30 17 N -3.413459 1.311269 -1.542808 0
M  V30 18 S -3.212364 0.352712 -2.847005 0
M  V30 19 N -1.390959 0.507343 -3.049067 0
M  V30 20 C -1.068713 1.385791 -1.966562 0
M  V30 21 C -0.117461 -1.462893 1.767848 0
M  V30 22 C -0.651884 -2.043813 2.898620 0
M  V30 23 H -0.739674 -4.904916 4.489452 0
M  V30 24 H -0.094209 -3.518298 5.494785 0
M  V30 25 H -1.709693 -3.448010 4.746126 0
M  V30 26 H 1.417497 -4.718966 3.183377 0
M  V30 27 H 2.383286 -3.718055 1.186199 0
M  V30 28 H 0.305208 0.219489 -0.284154 0
M  V30 29 H 1.743498 1.780137 -3.324683 0
M  V30 30 H 1.456079 2.980603 -0.432977 0
M  V30 31 H -0.441179 3.750291 1.000435 0
M  V30 32 H -2.657921 2.986242 0.489823 0
M  V30 33 H -0.561656 -0.554823 1.390622 0
M  V30 34 H -1.496590 -1.564346 3.362343 0
M  V30 END ATOM
M  V30 BEGIN BOND
M  V30 1 1 1 2
M  V30 2 2 2 3
M  V30 3 1 3 4
M  V30 4 2 4 5
M  V30 5 1 5 6
M  V30 6 2 6 7
M  V30 7 1 6 8
M  V30 8 1 8 9
M  V30 9 2 9 10
M  V30 10 1 9 11
M  V30 11 1 11 12
M  V30 12 2 12 13
M  V30 13 1 13 14
M  V30 14 2 14 15
M  V30 15 1 15 16
M  V30 16 2 16 17
M  V30 17 1 17 18
M  V30 18 1 18 19
M  V30 19 2 19 20
M  V30 20 1 5 21
M  V30 21 2 21 22
M  V30 22 1 22 2
M  V30 23 1 20 12
M  V30 24 1 20 16
M  V30 25 1 1 23
M  V30 26 1 1 24
M  V30 27 1 1 25
M  V30 28 1 3 26
M  V30 29 1 4 27
M  V30 30 1 8 28
M  V30 31 1 11 29
M  V30 32 1 13 30
M  V30 33 1 14 31
M  V30 34 1 15 32
M  V30 35 1 21 33
M  V30 36 1 22 34
M  V30 END BOND
M  V30 END CTAB
M  END
>  <Dataset>  (3) 
ChEMBL_Kinases

>  <Ligand_Instance>  (3) 
nan

>  <PDB_ID>  (3) 
nan

>  <Standardized_SMILES>  (3) 
Cc1ccc(C(=O)NC(=S)Nc2cccc3nsnc23)cc1

>  <Name>  (3) 
nan

>  <Pocket>  (3) 
nan

>  <ATP_Site>  (3) 
nan

>  <Peripheral>  (3) 
nan

>  <Num_H_Atoms_ProtBoundConf>  (3) 
nan

>  <Num_Resolved_Atoms>  (3) 
nan

>  <Num_Not_Resolved_Atoms>  (3) 
nan

$$$$
CHEMBL1607283
     RDKit          3D

  0  0  0  0  0  0  0  0  0  0999 V3000
M  V30 BEGIN CTAB
M  V30 COUNTS 49 51 0 0 0
M  V30 BEGIN ATOM
M  V30 1 C -0.873900 2.728483 -2.273748 0
M  V30 2 O 0.187190 2.961443 -1.407474 0
M  V30 3 C 0.528260 2.114897 -0.381575 0
M  V30 4 O 0.135535 2.806310 -1.333199 0
M  V30 5 C 1.376250 1.788356 0.732553 0
M  V30 6 C 2.420516 2.611448 1.128330 0
M  V30 7 C 3.180820 2.222812 2.209274 0
M  V30 8 O 4.258705 2.988972 2.685743 0
M  V30 9 C 4.506687 4.188568 1.974285 0
M  V30 10 C 2.836603 1.033868 2.814482 0
M  V30 11 O 3.617347 0.668030 3.897073 0
M  V30 12 C 3.357464 -0.543701 4.603958 0
M  V30 13 C 1.795650 0.211652 2.420799 0
M  V30 14 C 1.048460 0.604674 1.351229 0
M  V30 15 N -0.020346 -0.250399 0.968383 0
M  V30 16 C -1.202031 0.406292 0.867568 0
M  V30 17 N -2.280830 -0.350079 0.510326 0
M  V30 18 C -2.143343 -1.645727 0.283281 0
M  V30 19 C -3.296007 -2.324966 -0.075538 0
M  V30 20 C -3.173937 -3.690587 -0.320693 0
M  V30 21 O -4.328435 -4.375555 -0.680168 0
M  V30 22 C -5.582867 -3.750265 -0.801523 0
M  V30 23 C -1.991658 -4.398716 -0.229299 0
M  V30 24 O -2.014465 -5.758230 -0.502195 0
M  V30 25 C -0.851629 -6.565024 -0.431958 0
M  V30 26 C -0.860890 -3.696005 0.129575 0
M  V30 27 C -0.960597 -2.347191 0.375940 0
M  V30 28 C 0.116746 -1.563690 0.737749 0
M  V30 29 O 1.257138 -2.104976 0.852273 0
M  V30 30 H -1.385246 1.748790 -2.110635 0
M  V30 31 H -0.552347 2.706129 -3.353687 0
M  V30 32 H -1.642464 3.555614 -2.208988 0
M  V30 33 H 2.641368 3.526753 0.616511 0
M  V30 34 H 3.750098 4.983094 2.175258 0
M  V30 35 H 5.504101 4.553799 2.353611 0
M  V30 36 H 4.621962 4.053640 0.899242 0
M  V30 37 H 2.303477 -0.606082 4.922798 0
M  V30 38 H 4.040020 -0.656602 5.462090 0
M  V30 39 H 3.569344 -1.390867 3.904787 0
M  V30 40 H 1.611953 -0.705854 2.969303 0
M  V30 41 H -1.369505 1.456680 1.042316 0
M  V30 42 H -4.279050 -1.842580 -0.172232 0
M  V30 43 H -5.498435 -2.962400 -1.562176 0
M  V30 44 H -6.318747 -4.521215 -1.146370 0
M  V30 45 H -5.859542 -3.361324 0.198509 0
M  V30 46 H 0.081339 -6.017792 -0.681893 0
M  V30 47 H -0.778675 -6.890802 0.647150 0
M  V30 48 H -0.976696 -7.504079 -1.030154 0
M  V30 49 H 0.087508 -4.203047 0.214709 0
M  V30 END ATOM
M  V30 BEGIN BOND
M  V30 1 1 1 2
M  V30 2 1 2 3
M  V30 3 2 3 4
M  V30 4 1 3 5
M  V30 5 2 5 6
M  V30 6 1 6 7
M  V30 7 1 7 8
M  V30 8 1 8 9
M  V30 9 2 7 10
M  V30 10 1 10 11
M  V30 11 1 11 12
M  V30 12 1 10 13
M  V30 13 2 13 14
M  V30 14 1 14 15
M  V30 15 1 15 16
M  V30 16 2 16 17
M  V30 17 1 17 18
M  V30 18 2 18 19
M  V30 19 1 19 20
M  V30 20 1 20 21
M  V30 21 1 21 22
M  V30 22 2 20 23
M  V30 23 1 23 24
M  V30 24 1 24 25
M  V30 25 1 23 26
M  V30 26 2 26 27
M  V30 27 1 27 28
M  V30 28 2 28 29
M  V30 29 1 14 5
M  V30 30 1 28 15
M  V30 31 1 27 18
M  V30 32 1 1 30
M  V30 33 1 1 31
M  V30 34 1 1 32
M  V30 35 1 6 33
M  V30 36 1 9 34
M  V30 37 1 9 35
M  V30 38 1 9 36
M  V30 39 1 12 37
M  V30 40 1 12 38
M  V30 41 1 12 39
M  V30 42 1 13 40
M  V30 43 1 16 41
M  V30 44 1 19 42
M  V30 45 1 22 43
M  V30 46 1 22 44
M  V30 47 1 22 45
M  V30 48 1 25 46
M  V30 49 1 25 47
M  V30 50 1 25 48
M  V30 51 1 26 49
M  V30 END BOND
M  V30 END CTAB
M  END
>  <Dataset>  (4) 
ChEMBL_Kinases

>  <Ligand_Instance>  (4) 
nan

>  <PDB_ID>  (4) 
nan

>  <Standardized_SMILES>  (4) 
COC(=O)c1cc(OC)c(OC)cc1-n1cnc2cc(OC)c(OC)cc2c1=O

>  <Name>  (4) 
nan

>  <Pocket>  (4) 
nan

>  <ATP_Site>  (4) 
nan

>  <Peripheral>  (4) 
nan

>  <Num_H_Atoms_ProtBoundConf>  (4) 
nan

>  <Num_Resolved_Atoms>  (4) 
nan

>  <Num_Not_Resolved_Atoms>  (4) 
nan

$$$$
CHEMBL1607320
     RDKit          3D

  0  0  0  0  0  0  0  0  0  0999 V3000
M  V30 BEGIN CTAB
M  V30 COUNTS 35 36 0 0 0
M  V30 BEGIN ATOM
M  V30 1 C -2.056557 -1.256712 5.549929 0
M  V30 2 C -1.045737 -1.333107 4.459910 0
M  V30 3 C -1.378183 -2.102844 3.364479 0
M  V30 4 C -0.495331 -2.223506 2.313810 0
M  V30 5 C 0.734986 -1.604476 2.288928 0
M  V30 6 O 1.769298 -1.549550 1.417840 0
M  V30 7 C 1.977464 -2.112072 0.181876 0
M  V30 8 C 1.040755 -1.748157 -0.915490 0
M  V30 9 C 1.018771 -0.271879 -1.219370 0
M  V30 10 C 0.019624 -0.080559 -2.352584 0
M  V30 11 N -0.051159 1.324127 -2.696441 0
M  V30 12 C 0.644011 2.070787 -3.583736 0
M  V30 13 C 0.209583 3.379996 -3.549981 0
M  V30 14 N -0.770477 3.427328 -2.621616 0
M  V30 15 C -0.914605 2.177075 -2.116428 0
M  V30 16 C 1.059572 -0.824783 3.410264 0
M  V30 17 Cl 2.542754 0.085292 3.680692 0
M  V30 18 C 0.174884 -0.690290 4.488236 0
M  V30 19 H -3.034379 -0.910572 5.105102 0
M  V30 20 H -2.186529 -2.233749 6.014364 0
M  V30 21 H -1.713811 -0.448029 6.225001 0
M  V30 22 H -2.310238 -2.636410 3.264723 0
M  V30 23 H -0.661170 -2.800366 1.426644 0
M  V30 24 H 3.002723 -1.774735 -0.161506 0
M  V30 25 H 2.031862 -3.238083 0.249843 0
M  V30 26 H 1.340920 -2.246460 -1.880679 0
M  V30 27 H 0.027998 -2.119575 -0.714614 0
M  V30 28 H 2.021779 0.016136 -1.588708 0
M  V30 29 H 0.704023 0.326446 -0.349595 0
M  V30 30 H -0.972489 -0.443051 -2.036998 0
M  V30 31 H 0.389476 -0.601328 -3.256792 0
M  V30 32 H 1.412988 1.600160 -4.185034 0
M  V30 33 H 0.665215 4.106371 -4.201035 0
M  V30 34 H -1.642972 1.984688 -1.359749 0
M  V30 35 H 0.339116 -0.119567 5.378007 0
M  V30 END ATOM
M  V30 BEGIN BOND
M  V30 1 1 1 2
M  V30 2 2 2 3
M  V30 3 1 3 4
M  V30 4 2 4 5
M  V30 5 1 5 6
M  V30 6 1 6 7
M  V30 7 1 7 8
M  V30 8 1 8 9
M  V30 9 1 9 10
M  V30 10 1 10 11
M  V30 11 1 11 12
M  V30 12 2 12 13
M  V30 13 1 13 14
M  V30 14 2 14 15
M  V30 15 1 5 16
M  V30 16 1 16 17
M  V30 17 2 16 18
M  V30 18 1 18 2
M  V30 19 1 15 11
M  V30 20 1 1 19
M  V30 21 1 1 20
M  V30 22 1 1 21
M  V30 23 1 3 22
M  V30 24 1 4 23
M  V30 25 1 7 24
M  V30 26 1 7 25
M  V30 27 1 8 26
M  V30 28 1 8 27
M  V30 29 1 9 28
M  V30 30 1 9 29
M  V30 31 1 10 30
M  V30 32 1 10 31
M  V30 33 1 12 32
M  V30 34 1 13 33
M  V30 35 1 15 34
M  V30 36 1 18 35
M  V30 END BOND
M  V30 END CTAB
M  END
>  <Dataset>  (5) 
ChEMBL_Kinases

>  <Ligand_Instance>  (5) 
nan

>  <PDB_ID>  (5) 
nan

>  <Standardized_SMILES>  (5) 
Cc1ccc(OCCCCn2ccnc2)c(Cl)c1

>  <Name>  (5) 
nan

>  <Pocket>  (5) 
nan

>  <ATP_Site>  (5) 
nan

>  <Peripheral>  (5) 
nan

>  <Num_H_Atoms_ProtBoundConf>  (5) 
nan

>  <Num_Resolved_Atoms>  (5) 
nan

>  <Num_Not_Resolved_Atoms>  (5) 
nan

$$$$
CHEMBL1607346
     RDKit          3D

  0  0  0  0  0  0  0  0  0  0999 V3000
M  V30 BEGIN CTAB
M  V30 COUNTS 37 38 0 0 0
M  V30 BEGIN ATOM
M  V30 1 C -1.502445 -5.109262 1.810717 0
M  V30 2 C -0.226925 -4.940343 1.063729 0
M  V30 3 O 0.346109 -5.888339 0.455066 0
M  V30 4 C 0.373859 -3.604368 1.046981 0
M  V30 5 C 1.280472 -3.140137 1.979916 0
M  V30 6 C 1.819372 -3.878195 3.160573 0
M  V30 7 N 1.621392 -1.876145 1.658046 0
M  V30 8 C 0.956241 -1.506853 0.535254 0
M  V30 9 C 1.002191 -0.221584 -0.196540 0
M  V30 10 O 0.337344 -0.015886 -1.217976 0
M  V30 11 O 1.833830 0.753397 0.320259 0
M  V30 12 C 2.051343 2.031887 -0.175680 0
M  V30 13 C 0.872344 2.895917 -0.254184 0
M  V30 14 C 0.553842 3.647234 0.876793 0
M  V30 15 C -0.518978 4.509512 0.958480 0
M  V30 16 C -1.357059 4.669351 -0.125655 0
M  V30 17 C -1.065544 3.937053 -1.260865 0
M  V30 18 C 0.015758 3.083989 -1.307657 0
M  V30 19 C 0.178084 -2.569036 0.144338 0
M  V30 20 C -0.729746 -2.689203 -1.002665 0
M  V30 21 H -1.438121 -4.462803 2.731254 0
M  V30 22 H -1.667677 -6.143273 2.169343 0
M  V30 23 H -2.391912 -4.747811 1.237410 0
M  V30 24 H 1.141595 -4.711981 3.394215 0
M  V30 25 H 1.903983 -3.176899 4.018350 0
M  V30 26 H 2.828624 -4.293218 2.891638 0
M  V30 27 H 2.281873 -1.217666 2.139944 0
M  V30 28 H 2.499031 1.942172 -1.210417 0
M  V30 29 H 2.800075 2.521156 0.483801 0
M  V30 30 H 1.146660 3.601068 1.793157 0
M  V30 31 H -0.747660 5.075535 1.829868 0
M  V30 32 H -2.215997 5.293715 -0.207522 0
M  V30 33 H -1.666854 4.000045 -2.154243 0
M  V30 34 H 0.233408 2.521413 -2.203906 0
M  V30 35 H -0.373516 -2.138445 -1.892177 0
M  V30 36 H -0.835831 -3.749930 -1.336769 0
M  V30 37 H -1.741517 -2.358493 -0.709905 0
M  V30 END ATOM
M  V30 BEGIN BOND
M  V30 1 1 1 2
M  V30 2 2 2 3
M  V30 3 1 2 4
M  V30 4 2 4 5
M  V30 5 1 5 6
M  V30 6 1 5 7
M  V30 7 1 7 8
M  V30 8 1 8 9
M  V30 9 2 9 10
M  V30 10 1 9 11
M  V30 11 1 11 12
M  V30 12 1 12 13
M  V30 13 2 13 14
M  V30 14 1 14 15
M  V30 15 2 15 16
M  V30 16 1 16 17
M  V30 17 2 17 18
M  V30 18 2 8 19
M  V30 19 1 19 20
M  V30 20 1 19 4
M  V30 21 1 18 13
M  V30 22 1 1 21
M  V30 23 1 1 22
M  V30 24 1 1 23
M  V30 25 1 6 24
M  V30 26 1 6 25
M  V30 27 1 6 26
M  V30 28 1 7 27
M  V30 29 1 12 28
M  V30 30 1 12 29
M  V30 31 1 14 30
M  V30 32 1 15 31
M  V30 33 1 16 32
M  V30 34 1 17 33
M  V30 35 1 18 34
M  V30 36 1 20 35
M  V30 37 1 20 36
M  V30 38 1 20 37
M  V30 END BOND
M  V30 END CTAB
M  END
>  <Dataset>  (6) 
ChEMBL_Kinases

>  <Ligand_Instance>  (6) 
nan

>  <PDB_ID>  (6) 
nan

>  <Standardized_SMILES>  (6) 
CC(=O)c1c(C)[nH]c(C(=O)OCc2ccccc2)c1C

>  <Name>  (6) 
nan

>  <Pocket>  (6) 
nan

>  <ATP_Site>  (6) 
nan

>  <Peripheral>  (6) 
nan

>  <Num_H_Atoms_ProtBoundConf>  (6) 
nan

>  <Num_Resolved_Atoms>  (6) 
nan

>  <Num_Not_Resolved_Atoms>  (6) 
nan

$$$$
CHEMBL1607403
     RDKit          3D

  0  0  0  0  0  0  0  0  0  0999 V3000
M  V30 BEGIN CTAB
M  V30 COUNTS 36 38 0 0 0
M  V30 BEGIN ATOM
M  V30 1 C -0.789605 -4.924630 3.620768 0
M  V30 2 O 0.049116 -3.803053 3.729602 0
M  V30 3 C 0.172192 -2.954432 2.650698 0
M  V30 4 C -0.504039 -3.170898 1.465557 0
M  V30 5 C -0.366051 -2.304606 0.392570 0
M  V30 6 N -1.064435 -2.581479 -0.743180 0
M  V30 7 C -0.897469 -1.711769 -1.753533 0
M  V30 8 N -0.100254 -0.634860 -1.670903 0
M  V30 9 C 0.613651 -0.307130 -0.581319 0
M  V30 10 N 1.435333 0.820665 -0.537255 0
M  V30 11 C 1.604248 1.747574 -1.627025 0
M  V30 12 C 0.308107 2.438188 -2.005841 0
M  V30 13 C -0.715722 2.312651 -2.830930 0
M  V30 14 C -1.725880 3.204026 -2.833894 0
M  V30 15 C -1.638623 4.239480 -1.945178 0
M  V30 16 S 0.000108 3.909036 -1.049456 0
M  V30 17 C 0.446913 -1.195781 0.459949 0
M  V30 18 C 1.104260 -1.003091 1.640140 0
M  V30 19 C 0.991198 -1.842014 2.725971 0
M  V30 20 O 1.661378 -1.633102 3.909629 0
M  V30 21 C 2.534130 -0.512621 4.095367 0
M  V30 22 H -0.554984 -5.455856 2.669975 0
M  V30 23 H -0.652640 -5.640125 4.458102 0
M  V30 24 H -1.872717 -4.625531 3.530986 0
M  V30 25 H -1.159487 -4.024948 1.347302 0
M  V30 26 H -1.408229 -1.838673 -2.704931 0
M  V30 27 H 2.002833 1.094697 0.293414 0
M  V30 28 H 1.923866 1.152194 -2.538897 0
M  V30 29 H 2.423805 2.471049 -1.490537 0
M  V30 30 H -0.587175 1.434399 -3.447868 0
M  V30 31 H -2.551836 3.064403 -3.529845 0
M  V30 32 H -2.550064 5.056315 -1.937901 0
M  V30 33 H 1.750041 -0.179388 1.785454 0
M  V30 34 H 1.948827 0.431209 4.095049 0
M  V30 35 H 3.195171 -0.508495 3.189550 0
M  V30 36 H 3.187699 -0.650273 4.963396 0
M  V30 END ATOM
M  V30 BEGIN BOND
M  V30 1 1 1 2
M  V30 2 1 2 3
M  V30 3 2 3 4
M  V30 4 1 4 5
M  V30 5 2 5 6
M  V30 6 1 6 7
M  V30 7 2 7 8
M  V30 8 1 8 9
M  V30 9 1 9 10
M  V30 10 1 10 11
M  V30 11 1 11 12
M  V30 12 2 12 13
M  V30 13 1 13 14
M  V30 14 2 14 15
M  V30 15 1 15 16
M  V30 16 2 9 17
M  V30 17 1 17 18
M  V30 18 2 18 19
M  V30 19 1 19 20
M  V30 20 1 20 21
M  V30 21 1 19 3
M  V30 22 1 17 5
M  V30 23 1 16 12
M  V30 24 1 1 22
M  V30 25 1 1 23
M  V30 26 1 1 24
M  V30 27 1 4 25
M  V30 28 1 7 26
M  V30 29 1 10 27
M  V30 30 1 11 28
M  V30 31 1 11 29
M  V30 32 1 13 30
M  V30 33 1 14 31
M  V30 34 1 15 32
M  V30 35 1 18 33
M  V30 36 1 21 34
M  V30 37 1 21 35
M  V30 38 1 21 36
M  V30 END BOND
M  V30 END CTAB
M  END
>  <Dataset>  (7) 
ChEMBL_Kinases

>  <Ligand_Instance>  (7) 
nan

>  <PDB_ID>  (7) 
nan

>  <Standardized_SMILES>  (7) 
COc1cc2ncnc(NCc3cccs3)c2cc1OC

>  <Name>  (7) 
nan

>  <Pocket>  (7) 
nan

>  <ATP_Site>  (7) 
nan

>  <Peripheral>  (7) 
nan

>  <Num_H_Atoms_ProtBoundConf>  (7) 
nan

>  <Num_Resolved_Atoms>  (7) 
nan

>  <Num_Not_Resolved_Atoms>  (7) 
nan

$$$$
CHEMBL1608457
     RDKit          3D

  0  0  0  0  0  0  0  0  0  0999 V3000
M  V30 BEGIN CTAB
M  V30 COUNTS 44 45 0 0 0
M  V30 BEGIN ATOM
M  V30 1 C -2.033863 -3.944741 4.336875 0
M  V30 2 C -1.259727 -3.342337 3.220284 0
M  V30 3 C 0.022229 -3.769261 2.950682 0
M  V30 4 C 0.718147 -3.178994 1.892890 0
M  V30 5 C 0.134938 -2.172877 1.115332 0
M  V30 6 N 1.061026 -1.756476 0.118384 0
M  V30 7 C 2.081464 -0.783225 0.021399 0
M  V30 8 C 1.769298 0.531860 -0.480804 0
M  V30 9 O 2.742197 1.325291 -0.525721 0
M  V30 10 N 0.547574 1.063818 -0.927564 0
M  V30 11 C -0.015352 2.285843 -1.450168 0
M  V30 12 C 0.044624 3.481683 -0.581439 0
M  V30 13 C 1.322349 4.181812 -0.378724 0
M  V30 14 C 1.634850 3.991960 1.082038 0
M  V30 15 C 0.431769 3.285160 1.602761 0
M  V30 16 O -0.576296 3.316317 0.651049 0
M  V30 17 S 0.798844 -2.752011 -1.286888 0
M  V30 18 C 1.130374 -4.430416 -0.789066 0
M  V30 19 O -0.666559 -2.702703 -1.667295 0
M  V30 20 O 1.636530 -2.353457 -2.442568 0
M  V30 21 C -1.149136 -1.764861 1.407107 0
M  V30 22 C -1.830748 -2.350680 2.451688 0
M  V30 23 Cl -3.441088 -1.757457 2.727213 0
M  V30 24 H -1.328022 -4.126369 5.172278 0
M  V30 25 H -2.891853 -3.336566 4.632249 0
M  V30 26 H -2.422850 -4.962755 4.065964 0
M  V30 27 H 0.415144 -4.544925 3.583010 0
M  V30 28 H 1.715204 -3.612330 1.795665 0
M  V30 29 H 2.530789 -0.664225 1.045242 0
M  V30 30 H 2.932540 -1.221266 -0.577466 0
M  V30 31 H -0.168622 0.269120 -0.830704 0
M  V30 32 H -1.056767 2.121596 -1.797034 0
M  V30 33 H 0.523729 2.520273 -2.433304 0
M  V30 34 H -0.633522 4.251600 -1.096486 0
M  V30 35 H 1.237916 5.306852 -0.547734 0
M  V30 36 H 2.183264 3.892318 -0.973197 0
M  V30 37 H 2.597690 3.421206 1.215055 0
M  V30 38 H 1.775348 4.981037 1.573028 0
M  V30 39 H 0.625966 2.205705 1.802750 0
M  V30 40 H 0.056239 3.803296 2.503583 0
M  V30 41 H 1.102602 -5.121484 -1.662008 0
M  V30 42 H 0.416231 -4.727105 -0.000524 0
M  V30 43 H 2.154963 -4.544052 -0.371266 0
M  V30 44 H -1.471549 -0.986994 0.731022 0
M  V30 END ATOM
M  V30 BEGIN BOND
M  V30 1 1 1 2
M  V30 2 2 2 3
M  V30 3 1 3 4
M  V30 4 2 4 5
M  V30 5 1 5 6
M  V30 6 1 6 7
M  V30 7 1 7 8
M  V30 8 2 8 9
M  V30 9 1 8 10
M  V30 10 1 10 11
M  V30 11 1 11 12
M  V30 12 1 12 13
M  V30 13 1 13 14
M  V30 14 1 14 15
M  V30 15 1 15 16
M  V30 16 1 6 17
M  V30 17 1 17 18
M  V30 18 2 17 19
M  V30 19 2 17 20
M  V30 20 1 5 21
M  V30 21 2 21 22
M  V30 22 1 22 23
M  V30 23 1 22 2
M  V30 24 1 16 12
M  V30 25 1 1 24
M  V30 26 1 1 25
M  V30 27 1 1 26
M  V30 28 1 3 27
M  V30 29 1 4 28
M  V30 30 1 7 29
M  V30 31 1 7 30
M  V30 32 1 10 31
M  V30 33 1 11 32
M  V30 34 1 11 33
M  V30 35 1 12 34
M  V30 36 1 13 35
M  V30 37 1 13 36
M  V30 38 1 14 37
M  V30 39 1 14 38
M  V30 40 1 15 39
M  V30 41 1 15 40
M  V30 42 1 18 41
M  V30 43 1 18 42
M  V30 44 1 18 43
M  V30 45 1 21 44
M  V30 END BOND
M  V30 END CTAB
M  END
>  <Dataset>  (8) 
ChEMBL_Kinases

>  <Ligand_Instance>  (8) 
nan

>  <PDB_ID>  (8) 
nan

>  <Standardized_SMILES>  (8) 
Cc1ccc(N(CC(=O)NCC2CCCO2)S(C)(=O)=O)cc1Cl

>  <Name>  (8) 
nan

>  <Pocket>  (8) 
nan

>  <ATP_Site>  (8) 
nan

>  <Peripheral>  (8) 
nan

>  <Num_H_Atoms_ProtBoundConf>  (8) 
nan

>  <Num_Resolved_Atoms>  (8) 
nan

>  <Num_Not_Resolved_Atoms>  (8) 
nan

$$$$
CHEMBL1607616
     RDKit          3D

  0  0  0  0  0  0  0  0  0  0999 V3000
M  V30 BEGIN CTAB
M  V30 COUNTS 35 37 0 0 0
M  V30 BEGIN ATOM
M  V30 1 N 0.384591 -4.403920 3.947145 0
M  V30 2 C 0.425621 -4.062566 2.826850 0
M  V30 3 C 0.465688 -3.631067 1.441776 0
M  V30 4 C 1.729211 -2.807035 1.205559 0
M  V30 5 N 1.780575 -2.369363 -0.177491 0
M  V30 6 C 2.403244 -3.182199 -1.080502 0
M  V30 7 O 2.924501 -4.273028 -0.772536 0
M  V30 8 C 2.439235 -2.745529 -2.386558 0
M  V30 9 N 1.891160 -1.576421 -2.767798 0
M  V30 10 C 1.273741 -0.772953 -1.865865 0
M  V30 11 C 0.704591 0.430879 -2.235261 0
M  V30 12 N 0.109438 1.169751 -1.273557 0
M  V30 13 C 0.064941 0.757737 0.009701 0
M  V30 14 N -0.565798 1.546074 1.015181 0
M  V30 15 C -0.650732 1.165029 2.413115 0
M  V30 16 C -2.002081 1.704571 2.901312 0
M  V30 17 O -2.941677 1.728974 1.875260 0
M  V30 18 C -2.668968 2.631272 0.875101 0
M  V30 19 C -1.179773 2.819415 0.682773 0
M  V30 20 N 0.620698 -0.416248 0.366470 0
M  V30 21 C 1.237671 -1.214179 -0.547625 0
M  V30 22 H -0.416867 -2.993896 1.207252 0
M  V30 23 H 0.477262 -4.525272 0.796215 0
M  V30 24 H 1.723304 -1.932581 1.884534 0
M  V30 25 H 2.618801 -3.399560 1.478539 0
M  V30 26 H 2.920851 -3.359025 -3.124423 0
M  V30 27 H 0.739224 0.762300 -3.261889 0
M  V30 28 H -0.575088 0.094612 2.602584 0
M  V30 29 H 0.124606 1.705655 2.994539 0
M  V30 30 H -2.384869 1.006838 3.669758 0
M  V30 31 H -1.863118 2.724344 3.325596 0
M  V30 32 H -3.101099 3.617884 1.150258 0
M  V30 33 H -3.070768 2.234955 -0.079571 0
M  V30 34 H -0.783117 3.644532 1.305603 0
M  V30 35 H -0.960835 3.048567 -0.372753 0
M  V30 END ATOM
M  V30 BEGIN BOND
M  V30 1 3 1 2
M  V30 2 1 2 3
M  V30 3 1 3 4
M  V30 4 1 4 5
M  V30 5 1 5 6
M  V30 6 2 6 7
M  V30 7 1 6 8
M  V30 8 2 8 9
M  V30 9 1 9 10
M  V30 10 2 10 11
M  V30 11 1 11 12
M  V30 12 2 12 13
M  V30 13 1 13 14
M  V30 14 1 14 15
M  V30 15 1 15 16
M  V30 16 1 16 17
M  V30 17 1 17 18
M  V30 18 1 18 19
M  V30 19 1 13 20
M  V30 20 2 20 21
M  V30 21 1 21 5
M  V30 22 1 21 10
M  V30 23 1 19 14
M  V30 24 1 3 22
M  V30 25 1 3 23
M  V30 26 1 4 24
M  V30 27 1 4 25
M  V30 28 1 8 26
M  V30 29 1 11 27
M  V30 30 1 15 28
M  V30 31 1 15 29
M  V30 32 1 16 30
M  V30 33 1 16 31
M  V30 34 1 18 32
M  V30 35 1 18 33
M  V30 36 1 19 34
M  V30 37 1 19 35
M  V30 END BOND
M  V30 END CTAB
M  END
>  <Dataset>  (9) 
ChEMBL_Kinases

>  <Ligand_Instance>  (9) 
nan

>  <PDB_ID>  (9) 
nan

>  <Standardized_SMILES>  (9) 
N#CCCn1c(=O)cnc2cnc(N3CCOCC3)nc21

>  <Name>  (9) 
nan

>  <Pocket>  (9) 
nan

>  <ATP_Site>  (9) 
nan

>  <Peripheral>  (9) 
nan

>  <Num_H_Atoms_ProtBoundConf>  (9) 
nan

>  <Num_Resolved_Atoms>  (9) 
nan

>  <Num_Not_Resolved_Atoms>  (9) 
nan

$$$$
CHEMBL1607863
     RDKit          3D

  0  0  0  0  0  0  0  0  0  0999 V3000
M  V30 BEGIN CTAB
M  V30 COUNTS 62 65 0 0 0
M  V30 BEGIN ATOM
M  V30 1 C 6.147268 3.919274 4.351838 0
M  V30 2 C 5.094830 4.882702 3.928366 0
M  V30 3 C 4.707494 4.894556 2.508698 0
M  V30 4 N 4.105191 3.734539 1.926603 0
M  V30 5 C 4.076450 2.507169 1.182531 0
M  V30 6 C 4.104390 1.228177 1.908082 0
M  V30 7 C 5.261401 0.854313 2.778792 0
M  V30 8 C 3.933451 1.151867 3.383802 0
M  V30 9 C 2.694319 3.947876 2.226033 0
M  V30 10 O 2.634672 5.044603 2.868266 0
M  V30 11 C 1.314537 3.478425 2.126636 0
M  V30 12 O 1.203290 2.242749 1.416167 0
M  V30 13 C -0.085995 1.698859 1.262087 0
M  V30 14 O -0.696893 2.608499 1.873957 0
M  V30 15 C -0.367377 0.453334 0.567568 0
M  V30 16 C 0.658220 -0.272477 0.003160 0
M  V30 17 C 0.249882 -1.430876 -0.618309 0
M  V30 18 C -1.054067 -1.874856 -0.699797 0
M  V30 19 C -2.037759 -1.102161 -0.113892 0
M  V30 20 C -1.696757 0.087562 0.535063 0
M  V30 21 C -3.308622 -1.783616 -0.337835 0
M  V30 22 O -4.371602 -1.311561 0.083384 0
M  V30 23 N -3.110500 -2.985863 -1.067087 0
M  V30 24 C -4.071755 -3.939204 -1.492059 0
M  V30 25 C -3.769418 -5.083080 -2.196174 0
M  V30 26 C -4.690942 -6.018920 -2.615946 0
M  V30 27 C -6.023970 -5.819612 -2.322162 0
M  V30 28 O -6.977789 -6.741822 -2.729599 0
M  V30 29 C -6.554077 -7.900672 -3.458343 0
M  V30 30 C -7.735079 -8.777259 -3.810120 0
M  V30 31 C -6.408843 -4.696141 -1.619010 0
M  V30 32 C -5.415504 -3.792950 -1.227657 0
M  V30 33 C -1.707778 -3.037138 -1.289100 0
M  V30 34 O -1.013691 -3.898073 -1.886914 0
M  V30 35 H 6.752252 4.324057 5.225153 0
M  V30 36 H 6.861455 3.662080 3.530008 0
M  V30 37 H 5.718030 2.982226 4.741053 0
M  V30 38 H 4.231691 4.757625 4.631556 0
M  V30 39 H 5.493468 5.909165 4.206688 0
M  V30 40 H 5.720184 5.085747 1.952084 0
M  V30 41 H 4.185825 5.855509 2.243964 0
M  V30 42 H 5.003534 2.468215 0.493264 0
M  V30 43 H 3.259665 2.511540 0.398490 0
M  V30 44 H 3.667882 0.347594 1.348715 0
M  V30 45 H 5.581864 -0.225244 2.811587 0
M  V30 46 H 6.108466 1.518175 2.904516 0
M  V30 47 H 3.701720 2.052497 3.954047 0
M  V30 48 H 3.355493 0.265368 3.780511 0
M  V30 49 H 0.704333 4.231901 1.588109 0
M  V30 50 H 0.874326 3.377759 3.142246 0
M  V30 51 H 1.693765 0.028858 0.037300 0
M  V30 52 H 1.045625 -2.035754 -1.080833 0
M  V30 53 H -2.473415 0.686640 0.990927 0
M  V30 54 H -2.748609 -5.304024 -2.460581 0
M  V30 55 H -4.394523 -6.900240 -3.167108 0
M  V30 56 H -6.015682 -7.642242 -4.387668 0
M  V30 57 H -5.834139 -8.505654 -2.857209 0
M  V30 58 H -7.714086 -9.708269 -3.220134 0
M  V30 59 H -8.703362 -8.250368 -3.587646 0
M  V30 60 H -7.709158 -9.073411 -4.895067 0
M  V30 61 H -7.448976 -4.554118 -1.397365 0
M  V30 62 H -5.805782 -2.956098 -0.689931 0
M  V30 END ATOM
M  V30 BEGIN BOND
M  V30 1 1 1 2
M  V30 2 1 2 3
M  V30 3 1 3 4
M  V30 4 1 4 5
M  V30 5 1 5 6
M  V30 6 1 6 7
M  V30 7 1 7 8
M  V30 8 1 4 9
M  V30 9 2 9 10
M  V30 10 1 9 11
M  V30 11 1 11 12
M  V30 12 1 12 13
M  V30 13 2 13 14
M  V30 14 1 13 15
M  V30 15 2 15 16
M  V30 16 1 16 17
M  V30 17 2 17 18
M  V30 18 1 18 19
M  V30 19 2 19 20
M  V30 20 1 19 21
M  V30 21 2 21 22
M  V30 22 1 21 23
M  V30 23 1 23 24
M  V30 24 2 24 25
M  V30 25 1 25 26
M  V30 26 2 26 27
M  V30 27 1 27 28
M  V30 28 1 28 29
M  V30 29 1 29 30
M  V30 30 1 27 31
M  V30 31 2 31 32
M  V30 32 1 23 33
M  V30 33 2 33 34
M  V30 34 1 8 6
M  V30 35 1 20 15
M  V30 36 1 32 24
M  V30 37 1 33 18
M  V30 38 1 1 35
M  V30 39 1 1 36
M  V30 40 1 1 37
M  V30 41 1 2 38
M  V30 42 1 2 39
M  V30 43 1 3 40
M  V30 44 1 3 41
M  V30 45 1 5 42
M  V30 46 1 5 43
M  V30 47 1 6 44
M  V30 48 1 7 45
M  V30 49 1 7 46
M  V30 50 1 8 47
M  V30 51 1 8 48
M  V30 52 1 11 49
M  V30 53 1 11 50
M  V30 54 1 16 51
M  V30 55 1 17 52
M  V30 56 1 20 53
M  V30 57 1 25 54
M  V30 58 1 26 55
M  V30 59 1 29 56
M  V30 60 1 29 57
M  V30 61 1 30 58
M  V30 62 1 30 59
M  V30 63 1 30 60
M  V30 64 1 31 61
M  V30 65 1 32 62
M  V30 END BOND
M  V30 END CTAB
M  END
>  <Dataset>  (10) 
ChEMBL_Kinases

>  <Ligand_Instance>  (10) 
nan

>  <PDB_ID>  (10) 
nan

>  <Standardized_SMILES>  (10) 
CCCN(CC1CC1)C(=O)COC(=O)c1ccc2c(c1)C(=O)N(c1ccc(OCC)cc1)C2=O

>  <Name>  (10) 
nan

>  <Pocket>  (10) 
nan

>  <ATP_Site>  (10) 
nan

>  <Peripheral>  (10) 
nan

>  <Num_H_Atoms_ProtBoundConf>  (10) 
nan

>  <Num_Resolved_Atoms>  (10) 
nan

>  <Num_Not_Resolved_Atoms>  (10) 
nan

$$$$
CHEMBL1608006
     RDKit          3D

  0  0  0  0  0  0  0  0  0  0999 V3000
M  V30 BEGIN CTAB
M  V30 COUNTS 43 45 0 0 0
M  V30 BEGIN ATOM
M  V30 1 C -0.726268 -7.199540 -0.388211 0
M  V30 2 O 0.316449 -6.556112 0.305754 0
M  V30 3 C 0.653158 -5.230167 0.081056 0
M  V30 4 C -0.127631 -4.609698 -0.880008 0
M  V30 5 C 0.125499 -3.283415 -1.179761 0
M  V30 6 C 1.132753 -2.626699 -0.523295 0
M  V30 7 C 1.441332 -1.229586 -0.795293 0
M  V30 8 O 2.371404 -0.599871 -0.201028 0
M  V30 9 C 0.649620 -0.508640 -1.796919 0
M  V30 10 S 1.165252 1.215051 -1.993396 0
M  V30 11 C 0.832311 2.165622 -0.512099 0
M  V30 12 N 1.560565 2.428235 0.614615 0
M  V30 13 C 0.824680 3.208443 1.432031 0
M  V30 14 N 1.024880 3.761229 2.643244 0
M  V30 15 C 0.125054 4.525281 3.289911 0
M  V30 16 C 0.465515 5.085107 4.638726 0
M  V30 17 C -1.100806 4.757239 2.653879 0
M  V30 18 C -1.307427 4.191808 1.412843 0
M  V30 19 C -2.602423 4.420977 0.706846 0
M  V30 20 N -0.371781 3.434531 0.810378 0
M  V30 21 N -0.353709 2.801961 -0.357198 0
M  V30 22 C 1.894680 -3.280691 0.433504 0
M  V30 23 C 1.683291 -4.601254 0.769193 0
M  V30 24 O 2.327622 -5.395619 1.675811 0
M  V30 25 C 3.405751 -4.935518 2.478423 0
M  V30 26 H -1.673223 -6.602337 -0.278731 0
M  V30 27 H -0.489160 -7.354937 -1.458986 0
M  V30 28 H -0.934668 -8.172000 0.144555 0
M  V30 29 H -0.926008 -5.091257 -1.416195 0
M  V30 30 H -0.485015 -2.793629 -1.933081 0
M  V30 31 H -0.425709 -0.488969 -1.472183 0
M  V30 32 H 0.751929 -1.016765 -2.773594 0
M  V30 33 H 1.468812 5.553507 4.643824 0
M  V30 34 H -0.291530 5.827386 4.898656 0
M  V30 35 H 0.486353 4.240541 5.357063 0
M  V30 36 H -1.831771 5.363714 3.153595 0
M  V30 37 H -2.633949 3.822157 -0.231673 0
M  V30 38 H -2.730972 5.494509 0.440300 0
M  V30 39 H -3.480316 4.116626 1.305478 0
M  V30 40 H 2.715290 -2.822915 0.997935 0
M  V30 41 H 2.973112 -4.471647 3.407242 0
M  V30 42 H 3.997160 -4.169422 1.967890 0
M  V30 43 H 4.074860 -5.752616 2.817692 0
M  V30 END ATOM
M  V30 BEGIN BOND
M  V30 1 1 1 2
M  V30 2 1 2 3
M  V30 3 2 3 4
M  V30 4 1 4 5
M  V30 5 2 5 6
M  V30 6 1 6 7
M  V30 7 2 7 8
M  V30 8 1 7 9
M  V30 9 1 9 10
M  V30 10 1 10 11
M  V30 11 1 11 12
M  V30 12 2 12 13
M  V30 13 1 13 14
M  V30 14 2 14 15
M  V30 15 1 15 16
M  V30 16 1 15 17
M  V30 17 2 17 18
M  V30 18 1 18 19
M  V30 19 1 18 20
M  V30 20 1 20 21
M  V30 21 1 6 22
M  V30 22 2 22 23
M  V30 23 1 23 24
M  V30 24 1 24 25
M  V30 25 1 23 3
M  V30 26 2 21 11
M  V30 27 1 20 13
M  V30 28 1 1 26
M  V30 29 1 1 27
M  V30 30 1 1 28
M  V30 31 1 4 29
M  V30 32 1 5 30
M  V30 33 1 9 31
M  V30 34 1 9 32
M  V30 35 1 16 33
M  V30 36 1 16 34
M  V30 37 1 16 35
M  V30 38 1 17 36
M  V30 39 1 19 37
M  V30 40 1 19 38
M  V30 41 1 19 39
M  V30 42 1 22 40
M  V30 43 1 25 41
M  V30 44 1 25 42
M  V30 45 1 25 43
M  V30 END BOND
M  V30 END CTAB
M  END
>  <Dataset>  (11) 
ChEMBL_Kinases

>  <Ligand_Instance>  (11) 
nan

>  <PDB_ID>  (11) 
nan

>  <Standardized_SMILES>  (11) 
COc1ccc(C(=O)CSc2nc3nc(C)cc(C)n3n2)cc1OC

>  <Name>  (11) 
nan

>  <Pocket>  (11) 
nan

>  <ATP_Site>  (11) 
nan

>  <Peripheral>  (11) 
nan

>  <Num_H_Atoms_ProtBoundConf>  (11) 
nan

>  <Num_Resolved_Atoms>  (11) 
nan

>  <Num_Not_Resolved_Atoms>  (11) 
nan

$$$$
CHEMBL1608157
     RDKit          3D

  0  0  0  0  0  0  0  0  0  0999 V3000
M  V30 BEGIN CTAB
M  V30 COUNTS 56 58 0 0 0
M  V30 BEGIN ATOM
M  V30 1 C 4.966521 -4.771971 -2.208576 0
M  V30 2 C 5.762352 -3.582549 -2.640596 0
M  V30 3 O 5.628961 -2.451803 -1.809483 0
M  V30 4 C 4.380326 -1.883913 -1.643824 0
M  V30 5 C 4.452619 -0.779953 -0.785302 0
M  V30 6 C 3.317984 -0.038677 -0.462989 0
M  V30 7 C 2.073540 -0.355275 -0.971858 0
M  V30 8 C 0.793869 0.324648 -0.722758 0
M  V30 9 N 0.016628 -0.152534 0.351738 0
M  V30 10 C 0.630886 -0.068035 1.634086 0
M  V30 11 C -0.305881 0.434883 2.701083 0
M  V30 12 N -1.001448 1.629018 2.332993 0
M  V30 13 C -2.066644 1.988930 3.223374 0
M  V30 14 C -3.125943 0.955243 3.332696 0
M  V30 15 C -3.121550 -0.072388 4.258363 0
M  V30 16 C -4.286605 -0.798889 4.010342 0
M  V30 17 C -4.911349 -0.152829 2.947888 0
M  V30 18 C -6.198711 -0.744545 2.484483 0
M  V30 19 O -4.199404 0.883214 2.568075 0
M  V30 20 C -1.356461 1.697091 0.943474 0
M  V30 21 C -1.338227 0.265763 0.395404 0
M  V30 22 C -2.080238 0.267383 -0.893481 0
M  V30 23 C -2.121596 -1.137004 -1.478711 0
M  V30 24 O -2.774759 -2.000431 -0.567856 0
M  V30 25 C 2.034730 -1.461578 -1.825167 0
M  V30 26 C 3.142504 -2.205991 -2.155858 0
M  V30 27 H 5.611567 -5.614598 -1.862547 0
M  V30 28 H 4.320192 -5.141697 -3.024994 0
M  V30 29 H 4.327786 -4.537992 -1.316350 0
M  V30 30 H 5.493951 -3.343947 -3.704329 0
M  V30 31 H 6.854860 -3.835805 -2.698907 0
M  V30 32 H 5.366516 -0.400504 -0.299458 0
M  V30 33 H 3.355531 0.805039 0.184796 0
M  V30 34 H 0.254338 0.416820 -1.669151 0
M  V30 35 H 1.075036 1.391921 -0.460586 0
M  V30 36 H 1.434024 0.717845 1.572849 0
M  V30 37 H 1.128746 -0.983191 1.994200 0
M  V30 38 H 0.263706 0.644718 3.630120 0
M  V30 39 H -1.047690 -0.349463 2.956567 0
M  V30 40 H -2.543911 2.907158 2.821108 0
M  V30 41 H -1.634019 2.266162 4.210992 0
M  V30 42 H -2.366393 -0.253240 5.003973 0
M  V30 43 H -4.506029 -1.659978 4.613655 0
M  V30 44 H -6.620763 -0.133352 1.643612 0
M  V30 45 H -6.926823 -0.896216 3.303269 0
M  V30 46 H -5.978214 -1.757528 2.056075 0
M  V30 47 H -2.334563 2.170530 0.848863 0
M  V30 48 H -0.560414 2.243188 0.397349 0
M  V30 49 H -1.954485 -0.307839 1.129905 0
M  V30 50 H -1.696877 0.998753 -1.633491 0
M  V30 51 H -3.147846 0.549076 -0.754847 0
M  V30 52 H -1.130501 -1.524519 -1.704387 0
M  V30 53 H -2.730712 -1.173151 -2.405278 0
M  V30 54 H -2.326536 -2.866748 -0.601279 0
M  V30 55 H 1.149560 -1.871854 -2.329023 0
M  V30 56 H 3.181360 -3.053260 -2.797403 0
M  V30 END ATOM
M  V30 BEGIN BOND
M  V30 1 1 1 2
M  V30 2 1 2 3
M  V30 3 1 3 4
M  V30 4 2 4 5
M  V30 5 1 5 6
M  V30 6 2 6 7
M  V30 7 1 7 8
M  V30 8 1 8 9
M  V30 9 1 9 10
M  V30 10 1 10 11
M  V30 11 1 11 12
M  V30 12 1 12 13
M  V30 13 1 13 14
M  V30 14 2 14 15
M  V30 15 1 15 16
M  V30 16 2 16 17
M  V30 17 1 17 18
M  V30 18 1 17 19
M  V30 19 1 12 20
M  V30 20 1 20 21
M  V30 21 1 21 22
M  V30 22 1 22 23
M  V30 23 1 23 24
M  V30 24 1 7 25
M  V30 25 2 25 26
M  V30 26 1 26 4
M  V30 27 1 21 9
M  V30 28 1 19 14
M  V30 29 1 1 27
M  V30 30 1 1 28
M  V30 31 1 1 29
M  V30 32 1 2 30
M  V30 33 1 2 31
M  V30 34 1 5 32
M  V30 35 1 6 33
M  V30 36 1 8 34
M  V30 37 1 8 35
M  V30 38 1 10 36
M  V30 39 1 10 37
M  V30 40 1 11 38
M  V30 41 1 11 39
M  V30 42 1 13 40
M  V30 43 1 13 41
M  V30 44 1 15 42
M  V30 45 1 16 43
M  V30 46 1 18 44
M  V30 47 1 18 45
M  V30 48 1 18 46
M  V30 49 1 20 47
M  V30 50 1 20 48
M  V30 51 1 21 49
M  V30 52 1 22 50
M  V30 53 1 22 51
M  V30 54 1 23 52
M  V30 55 1 23 53
M  V30 56 1 24 54
M  V30 57 1 25 55
M  V30 58 1 26 56
M  V30 END BOND
M  V30 END CTAB
M  END
>  <Dataset>  (12) 
ChEMBL_Kinases

>  <Ligand_Instance>  (12) 
nan

>  <PDB_ID>  (12) 
nan

>  <Standardized_SMILES>  (12) 
CCOc1ccc(CN2CCN(Cc3ccc(C)o3)CC2CCO)cc1

>  <Name>  (12) 
nan

>  <Pocket>  (12) 
nan

>  <ATP_Site>  (12) 
nan

>  <Peripheral>  (12) 
nan

>  <Num_H_Atoms_ProtBoundConf>  (12) 
nan

>  <Num_Resolved_Atoms>  (12) 
nan

>  <Num_Not_Resolved_Atoms>  (12) 
nan

$$$$
CHEMBL1608243
     RDKit          3D

  0  0  0  0  0  0  0  0  0  0999 V3000
M  V30 BEGIN CTAB
M  V30 COUNTS 50 53 0 0 0
M  V30 BEGIN ATOM
M  V30 1 C 4.612452 -2.966722 4.633503 0
M  V30 2 O 4.693520 -3.748558 3.445036 0
M  V30 3 C 3.715150 -3.447014 2.489584 0
M  V30 4 C 2.743177 -2.465618 2.682208 0
M  V30 5 C 1.798381 -2.205887 1.705741 0
M  V30 6 C 1.796932 -2.920202 0.506257 0
M  V30 7 N 0.784640 -2.547613 -0.383226 0
M  V30 8 C 0.887501 -1.444778 -1.148502 0
M  V30 9 S 2.147938 -0.200093 -1.322080 0
M  V30 10 C 1.916188 1.175098 -0.182426 0
M  V30 11 C 0.687715 1.951067 -0.484709 0
M  V30 12 O 0.062054 1.473584 -1.488372 0
M  V30 13 N 0.318425 3.074061 0.290442 0
M  V30 14 C -0.909129 3.649338 -0.205256 0
M  V30 15 C -1.991937 3.067752 0.426323 0
M  V30 16 C -3.285213 3.482758 0.089573 0
M  V30 17 C -3.424943 4.468293 -0.871767 0
M  V30 18 C -4.766304 4.946135 -1.269070 0
M  V30 19 O -4.957426 5.844496 -2.141757 0
M  V30 20 O -5.882602 4.381944 -0.654503 0
M  V30 21 C -2.322694 5.042664 -1.497331 0
M  V30 22 C -1.047822 4.631455 -1.163300 0
M  V30 23 N -0.251841 -1.361296 -1.898016 0
M  V30 24 N -1.033459 -2.400396 -1.589697 0
M  V30 25 C -0.393024 -3.132495 -0.654378 0
M  V30 26 C -0.822740 -4.387210 0.028804 0
M  V30 27 C -1.571213 -4.439800 1.182713 0
M  V30 28 C -1.895796 -5.652653 1.703569 0
M  V30 29 C -1.391122 -6.788922 0.945591 0
M  V30 30 S -0.472822 -5.943757 -0.483615 0
M  V30 31 C 2.755580 -3.894741 0.305590 0
M  V30 32 C 3.675527 -4.127623 1.289858 0
M  V30 33 H 3.596703 -3.078200 5.095165 0
M  V30 34 H 4.697811 -1.907035 4.324835 0
M  V30 35 H 5.411612 -3.175596 5.352104 0
M  V30 36 H 2.744441 -1.907928 3.619066 0
M  V30 37 H 1.073478 -1.424943 1.931908 0
M  V30 38 H 1.723369 0.711975 0.825823 0
M  V30 39 H 2.780702 1.833332 -0.112785 0
M  V30 40 H 0.970570 3.309507 1.079302 0
M  V30 41 H -1.983798 2.304095 1.176994 0
M  V30 42 H -4.176841 3.059346 0.555208 0
M  V30 43 H -6.749485 4.302501 -1.182192 0
M  V30 44 H -2.389864 5.813342 -2.251301 0
M  V30 45 H -0.117556 4.982540 -1.559962 0
M  V30 46 H -1.902947 -3.536558 1.678032 0
M  V30 47 H -2.471118 -5.850449 2.593731 0
M  V30 48 H -1.604623 -7.874728 1.293166 0
M  V30 49 H 2.710260 -4.416671 -0.635981 0
M  V30 50 H 4.413712 -4.899235 1.099366 0
M  V30 END ATOM
M  V30 BEGIN BOND
M  V30 1 1 1 2
M  V30 2 1 2 3
M  V30 3 2 3 4
M  V30 4 1 4 5
M  V30 5 2 5 6
M  V30 6 1 6 7
M  V30 7 1 7 8
M  V30 8 1 8 9
M  V30 9 1 9 10
M  V30 10 1 10 11
M  V30 11 2 11 12
M  V30 12 1 11 13
M  V30 13 1 13 14
M  V30 14 2 14 15
M  V30 15 1 15 16
M  V30 16 2 16 17
M  V30 17 1 17 18
M  V30 18 2 18 19
M  V30 19 1 18 20
M  V30 20 1 17 21
M  V30 21 2 21 22
M  V30 22 2 8 23
M  V30 23 1 23 24
M  V30 24 2 24 25
M  V30 25 1 25 26
M  V30 26 2 26 27
M  V30 27 1 27 28
M  V30 28 2 28 29
M  V30 29 1 29 30
M  V30 30 1 6 31
M  V30 31 2 31 32
M  V30 32 1 32 3
M  V30 33 1 25 7
M  V30 34 1 30 26
M  V30 35 1 22 14
M  V30 36 1 1 33
M  V30 37 1 1 34
M  V30 38 1 1 35
M  V30 39 1 4 36
M  V30 40 1 5 37
M  V30 41 1 10 38
M  V30 42 1 10 39
M  V30 43 1 13 40
M  V30 44 1 15 41
M  V30 45 1 16 42
M  V30 46 1 20 43
M  V30 47 1 21 44
M  V30 48 1 22 45
M  V30 49 1 27 46
M  V30 50 1 28 47
M  V30 51 1 29 48
M  V30 52 1 31 49
M  V30 53 1 32 50
M  V30 END BOND
M  V30 END CTAB
M  END
>  <Dataset>  (13) 
ChEMBL_Kinases

>  <Ligand_Instance>  (13) 
nan

>  <PDB_ID>  (13) 
nan

>  <Standardized_SMILES>  (13) 
COc1ccc(-n2c(SCC(=O)Nc3ccc(C(=O)O)cc3)nnc2-c2cccs2)cc1

>  <Name>  (13) 
nan

>  <Pocket>  (13) 
nan

>  <ATP_Site>  (13) 
nan

>  <Peripheral>  (13) 
nan

>  <Num_H_Atoms_ProtBoundConf>  (13) 
nan

>  <Num_Resolved_Atoms>  (13) 
nan

>  <Num_Not_Resolved_Atoms>  (13) 
nan

$$$$
CHEMBL1608249
     RDKit          3D

  0  0  0  0  0  0  0  0  0  0999 V3000
M  V30 BEGIN CTAB
M  V30 COUNTS 30 31 0 0 0
M  V30 BEGIN ATOM
M  V30 1 C -3.786414 -4.700531 3.031628 0
M  V30 2 C -2.479394 -4.504591 2.333321 0
M  V30 3 C -1.640350 -3.420686 2.489117 0
M  V30 4 C -0.549636 -3.642569 1.663400 0
M  V30 5 N 0.506187 -2.690993 1.599459 0
M  V30 6 C 0.478292 -1.632809 0.661706 0
M  V30 7 O -0.481447 -1.505653 -0.140548 0
M  V30 8 N 1.588080 -0.771837 0.715263 0
M  V30 9 C 1.880530 0.377103 -0.070194 0
M  V30 10 C 2.583693 0.370903 -1.258057 0
M  V30 11 C 2.831442 1.529598 -1.970306 0
M  V30 12 C 2.351545 2.734396 -1.463375 0
M  V30 13 C 1.644994 2.786396 -0.281375 0
M  V30 14 C 1.184476 4.116118 0.161170 0
M  V30 15 F 0.512860 4.040046 1.361094 0
M  V30 16 F 2.258985 4.991104 0.335066 0
M  V30 17 F 0.351060 4.723119 -0.776693 0
M  V30 18 C 1.417281 1.605510 0.402596 0
M  V30 19 N -0.771885 -4.840315 1.047998 0
M  V30 20 O -1.913586 -5.320076 1.463406 0
M  V30 21 H -3.658125 -4.324609 4.075038 0
M  V30 22 H -4.099085 -5.749543 3.038294 0
M  V30 23 H -4.506052 -4.007029 2.537865 0
M  V30 24 H -1.859900 -2.585420 3.153775 0
M  V30 25 H 1.226468 -2.936608 2.331784 0
M  V30 26 H 2.382986 -0.881696 1.383645 0
M  V30 27 H 2.937947 -0.589047 -1.614413 0
M  V30 28 H 3.396255 1.451337 -2.905927 0
M  V30 29 H 2.560704 3.643702 -2.047264 0
M  V30 30 H 0.854966 1.717537 1.325431 0
M  V30 END ATOM
M  V30 BEGIN BOND
M  V30 1 1 1 2
M  V30 2 2 2 3
M  V30 3 1 3 4
M  V30 4 1 4 5
M  V30 5 1 5 6
M  V30 6 2 6 7
M  V30 7 1 6 8
M  V30 8 1 8 9
M  V30 9 2 9 10
M  V30 10 1 10 11
M  V30 11 2 11 12
M  V30 12 1 12 13
M  V30 13 1 13 14
M  V30 14 1 14 15
M  V30 15 1 14 16
M  V30 16 1 14 17
M  V30 17 2 13 18
M  V30 18 2 4 19
M  V30 19 1 19 20
M  V30 20 1 20 2
M  V30 21 1 18 9
M  V30 22 1 1 21
M  V30 23 1 1 22
M  V30 24 1 1 23
M  V30 25 1 3 24
M  V30 26 1 5 25
M  V30 27 1 8 26
M  V30 28 1 10 27
M  V30 29 1 11 28
M  V30 30 1 12 29
M  V30 31 1 18 30
M  V30 END BOND
M  V30 END CTAB
M  END
>  <Dataset>  (14) 
ChEMBL_Kinases

>  <Ligand_Instance>  (14) 
nan

>  <PDB_ID>  (14) 
nan

>  <Standardized_SMILES>  (14) 
Cc1cc(NC(=O)Nc2cccc(C(F)(F)F)c2)no1

>  <Name>  (14) 
nan

>  <Pocket>  (14) 
nan

>  <ATP_Site>  (14) 
nan

>  <Peripheral>  (14) 
nan

>  <Num_H_Atoms_ProtBoundConf>  (14) 
nan

>  <Num_Resolved_Atoms>  (14) 
nan

>  <Num_Not_Resolved_Atoms>  (14) 
nan

$$$$
CHEMBL1608352
     RDKit          3D

  0  0  0  0  0  0  0  0  0  0999 V3000
M  V30 BEGIN CTAB
M  V30 COUNTS 43 44 0 0 0
M  V30 BEGIN ATOM
M  V30 1 C 0.262232 -4.216045 1.395359 0
M  V30 2 C 0.671286 -3.713070 0.025411 0
M  V30 3 C -0.126302 -2.471627 -0.262692 0
M  V30 4 N 0.109231 -1.438375 0.693641 0
M  V30 5 C -0.720567 -0.265829 0.544125 0 CFG=2
M  V30 6 C -2.051908 -0.510094 -0.028776 0
M  V30 7 O -2.953376 -1.255070 -0.479313 0
M  V30 8 O -2.655353 0.713090 -0.144795 0
M  V30 9 C -3.941259 0.956433 -0.649610 0
M  V30 10 C 0.080078 0.769472 -0.167672 0
M  V30 11 C 1.508052 0.402546 0.046514 0 CFG=1
M  V30 12 O 2.131248 0.430135 -1.226083 0
M  V30 13 C 2.303221 1.304807 0.911958 0 CFG=1
M  V30 14 O 2.447707 2.592339 0.368310 0
M  V30 15 C 1.919746 1.352580 2.356425 0 CFG=1
M  V30 16 O 0.742874 2.068779 2.578194 0
M  V30 17 C 1.920647 -0.024893 2.925496 0 CFG=1
M  V30 18 O 0.790870 -0.299794 3.728395 0
M  V30 19 C 2.192451 -1.111181 1.922904 0
M  V30 20 C 1.479836 -0.982185 0.627646 0 CFG=1
M  V30 21 H -0.062965 -3.366863 2.042746 0
M  V30 22 H 1.146224 -4.662771 1.917704 0
M  V30 23 H -0.598854 -4.914457 1.317993 0
M  V30 24 H 1.756912 -3.563861 -0.058507 0
M  V30 25 H 0.322367 -4.474951 -0.735611 0
M  V30 26 H -1.184264 -2.703836 -0.471425 0
M  V30 27 H 0.270111 -2.098816 -1.258674 0
M  V30 28 H -0.900212 0.114857 1.594926 0
M  V30 29 H -4.647078 1.165699 0.185477 0
M  V30 30 H -4.357121 0.079573 -1.171346 0
M  V30 31 H -3.953434 1.775754 -1.406828 0
M  V30 32 H -0.153603 1.807738 0.100552 0
M  V30 33 H -0.211710 0.688874 -1.256822 0
M  V30 34 H 2.500498 1.348969 -1.392693 0
M  V30 35 H 3.356571 0.894639 0.898556 0
M  V30 36 H 2.359083 3.228796 1.131480 0
M  V30 37 H 2.714475 2.000752 2.840784 0
M  V30 38 H 0.441017 2.029033 3.502419 0
M  V30 39 H 2.786910 -0.089518 3.649013 0
M  V30 40 H 1.046353 -1.057491 4.307734 0
M  V30 41 H 1.930095 -2.081668 2.387889 0
M  V30 42 H 3.286552 -1.180357 1.699352 0
M  V30 43 H 2.016325 -1.621498 -0.101363 0
M  V30 END ATOM
M  V30 BEGIN BOND
M  V30 1 1 1 2
M  V30 2 1 2 3
M  V30 3 1 3 4
M  V30 4 1 4 5
M  V30 5 1 5 6
M  V30 6 2 6 7
M  V30 7 1 6 8
M  V30 8 1 8 9
M  V30 9 1 5 10
M  V30 10 1 10 11
M  V30 11 1 11 12 CFG=3
M  V30 12 1 11 13
M  V30 13 1 13 14
M  V30 14 1 13 15
M  V30 15 1 15 16
M  V30 16 1 15 17
M  V30 17 1 17 18
M  V30 18 1 17 19
M  V30 19 1 19 20
M  V30 20 1 20 4
M  V30 21 1 20 11
M  V30 22 1 1 21
M  V30 23 1 1 22
M  V30 24 1 1 23
M  V30 25 1 2 24
M  V30 26 1 2 25
M  V30 27 1 3 26
M  V30 28 1 3 27
M  V30 29 1 5 28 CFG=1
M  V30 30 1 9 29
M  V30 31 1 9 30
M  V30 32 1 9 31
M  V30 33 1 10 32
M  V30 34 1 10 33
M  V30 35 1 12 34
M  V30 36 1 13 35 CFG=1
M  V30 37 1 14 36
M  V30 38 1 15 37 CFG=1
M  V30 39 1 16 38
M  V30 40 1 17 39 CFG=1
M  V30 41 1 18 40
M  V30 42 1 19 41
M  V30 43 1 19 42
M  V30 44 1 20 43 CFG=3
M  V30 END BOND
M  V30 END CTAB
M  END
>  <Dataset>  (15) 
ChEMBL_Kinases

>  <Ligand_Instance>  (15) 
nan

>  <PDB_ID>  (15) 
nan

>  <Standardized_SMILES>  (15) 
CCCN1[C@H](C(=O)OC)C[C@@]2(O)[C@@H](O)[C@@H](O)[C@@H](O)C[C@@H]12

>  <Name>  (15) 
nan

>  <Pocket>  (15) 
nan

>  <ATP_Site>  (15) 
nan

>  <Peripheral>  (15) 
nan

>  <Num_H_Atoms_ProtBoundConf>  (15) 
nan

>  <Num_Resolved_Atoms>  (15) 
nan

>  <Num_Not_Resolved_Atoms>  (15) 
nan

$$$$
CHEMBL1608403
     RDKit          3D

  0  0  0  0  0  0  0  0  0  0999 V3000
M  V30 BEGIN CTAB
M  V30 COUNTS 68 72 0 0 0
M  V30 BEGIN ATOM
M  V30 1 O -1.638568 -5.054505 1.394062 0
M  V30 2 C -0.485735 -4.672749 1.051593 0
M  V30 3 C 0.649367 -4.195792 1.924404 0
M  V30 4 C 1.169702 -3.075312 1.055076 0
M  V30 5 N 2.419203 -2.539969 1.464363 0
M  V30 6 C 2.294233 -2.017271 2.791464 0
M  V30 7 C 2.696436 -0.580109 2.932489 0
M  V30 8 N 2.148115 0.300365 1.978081 0
M  V30 9 C 1.029306 1.077264 2.418179 0
M  V30 10 C 1.368202 1.964608 3.606607 0
M  V30 11 C 0.244468 2.939066 3.550058 0
M  V30 12 O -0.238480 3.468457 4.602209 0
M  V30 13 N -0.103662 3.100257 2.163252 0
M  V30 14 C -1.052103 4.111568 1.766636 0
M  V30 15 C -2.479389 3.631226 1.753290 0
M  V30 16 C -2.723982 2.504832 0.833329 0
M  V30 17 C -2.569928 1.233429 1.343291 0
M  V30 18 C -2.799514 0.181682 0.479963 0
M  V30 19 C -3.170485 0.401510 -0.847682 0
M  V30 20 C -3.321049 1.681454 -1.344794 0
M  V30 21 C -3.088638 2.723581 -0.471649 0
M  V30 22 C 0.643466 2.128344 1.439522 0
M  V30 23 O 0.856405 2.266421 0.211021 0
M  V30 24 C 1.912636 -0.256569 0.682455 0
M  V30 25 C 2.795681 -1.488812 0.569423 0
M  V30 26 C 1.227126 -3.792367 -0.256289 0
M  V30 27 O 2.048236 -3.810554 -1.226127 0
M  V30 28 N 0.029975 -4.601595 -0.294251 0
M  V30 29 C -0.539003 -5.223028 -1.475527 0
M  V30 30 C -1.528792 -4.312153 -2.166077 0
M  V30 31 C -0.927853 -3.046211 -2.609279 0
M  V30 32 C -0.870230 -1.899368 -1.844146 0
M  V30 33 C -0.268041 -0.761252 -2.390421 0
M  V30 34 C 0.260746 -0.794653 -3.683517 0
M  V30 35 C 0.193526 -1.951430 -4.433508 0
M  V30 36 C -0.405781 -3.083951 -3.889701 0
M  V30 37 H 1.361619 -5.014053 2.069557 0
M  V30 38 H 0.190897 -3.845095 2.864143 0
M  V30 39 H 0.386763 -2.320980 0.976888 0
M  V30 40 H 1.245814 -2.127978 3.180115 0
M  V30 41 H 2.923145 -2.630355 3.469571 0
M  V30 42 H 2.425638 -0.254394 3.957143 0
M  V30 43 H 3.811527 -0.497165 2.888285 0
M  V30 44 H 0.122387 0.523835 2.672002 0
M  V30 45 H 2.301627 2.545689 3.447815 0
M  V30 46 H 1.369932 1.395028 4.556975 0
M  V30 47 H -1.003049 4.997587 2.405692 0
M  V30 48 H -0.832483 4.454614 0.736146 0
M  V30 49 H -2.766169 3.373943 2.800322 0
M  V30 50 H -3.099327 4.517601 1.495376 0
M  V30 51 H -2.286550 0.958766 2.353665 0
M  V30 52 H -2.698942 -0.850951 0.805668 0
M  V30 53 H -3.343933 -0.425325 -1.501007 0
M  V30 54 H -3.604784 1.892510 -2.358807 0
M  V30 55 H -3.185618 3.754507 -0.784602 0
M  V30 56 H 0.871995 -0.421208 0.410077 0
M  V30 57 H 2.339044 0.476822 -0.060945 0
M  V30 58 H 3.809244 -1.137557 0.921136 0
M  V30 59 H 2.953543 -1.790451 -0.472714 0
M  V30 60 H 0.208108 -5.646825 -2.158601 0
M  V30 61 H -1.137488 -6.092840 -1.118513 0
M  V30 62 H -2.307183 -4.051103 -1.401902 0
M  V30 63 H -2.048863 -4.881067 -2.950431 0
M  V30 64 H -1.290682 -1.917851 -0.851550 0
M  V30 65 H -0.215735 0.150613 -1.797545 0
M  V30 66 H 0.727200 0.057792 -4.129532 0
M  V30 67 H 0.607920 -1.973565 -5.443717 0
M  V30 68 H -0.428418 -3.957820 -4.523741 0
M  V30 END ATOM
M  V30 BEGIN BOND
M  V30 1 2 1 2
M  V30 2 1 2 3
M  V30 3 1 3 4
M  V30 4 1 4 5
M  V30 5 1 5 6
M  V30 6 1 6 7
M  V30 7 1 7 8
M  V30 8 1 8 9
M  V30 9 1 9 10
M  V30 10 1 10 11
M  V30 11 2 11 12
M  V30 12 1 11 13
M  V30 13 1 13 14
M  V30 14 1 14 15
M  V30 15 1 15 16
M  V30 16 2 16 17
M  V30 17 1 17 18
M  V30 18 2 18 19
M  V30 19 1 19 20
M  V30 20 2 20 21
M  V30 21 1 13 22
M  V30 22 2 22 23
M  V30 23 1 8 24
M  V30 24 1 24 25
M  V30 25 1 4 26
M  V30 26 2 26 27
M  V30 27 1 26 28
M  V30 28 1 28 29
M  V30 29 1 29 30
M  V30 30 1 30 31
M  V30 31 2 31 32
M  V30 32 1 32 33
M  V30 33 2 33 34
M  V30 34 1 34 35
M  V30 35 2 35 36
M  V30 36 1 28 2
M  V30 37 1 36 31
M  V30 38 1 25 5
M  V30 39 1 22 9
M  V30 40 1 21 16
M  V30 41 1 3 37
M  V30 42 1 3 38
M  V30 43 1 4 39
M  V30 44 1 6 40
M  V30 45 1 6 41
M  V30 46 1 7 42
M  V30 47 1 7 43
M  V30 48 1 9 44
M  V30 49 1 10 45
M  V30 50 1 10 46
M  V30 51 1 14 47
M  V30 52 1 14 48
M  V30 53 1 15 49
M  V30 54 1 15 50
M  V30 55 1 17 51
M  V30 56 1 18 52
M  V30 57 1 19 53
M  V30 58 1 20 54
M  V30 59 1 21 55
M  V30 60 1 24 56
M  V30 61 1 24 57
M  V30 62 1 25 58
M  V30 63 1 25 59
M  V30 64 1 29 60
M  V30 65 1 29 61
M  V30 66 1 30 62
M  V30 67 1 30 63
M  V30 68 1 32 64
M  V30 69 1 33 65
M  V30 70 1 34 66
M  V30 71 1 35 67
M  V30 72 1 36 68
M  V30 END BOND
M  V30 END CTAB
M  END
>  <Dataset>  (16) 
ChEMBL_Kinases

>  <Ligand_Instance>  (16) 
nan

>  <PDB_ID>  (16) 
nan

>  <Standardized_SMILES>  (16) 
O=C1CC(N2CCN(C3CC(=O)N(CCc4ccccc4)C3=O)CC2)C(=O)N1CCc1ccccc1

>  <Name>  (16) 
nan

>  <Pocket>  (16) 
nan

>  <ATP_Site>  (16) 
nan

>  <Peripheral>  (16) 
nan

>  <Num_H_Atoms_ProtBoundConf>  (16) 
nan

>  <Num_Resolved_Atoms>  (16) 
nan

>  <Num_Not_Resolved_Atoms>  (16) 
nan

$$$$
CHEMBL1607407
     RDKit          3D

  0  0  0  0  0  0  0  0  0  0999 V3000
M  V30 BEGIN CTAB
M  V30 COUNTS 57 60 0 0 0
M  V30 BEGIN ATOM
M  V30 1 O 0.603119 -0.005950 -1.089398 0
M  V30 2 C -0.421830 -0.231676 -0.365463 0
M  V30 3 N -0.311637 0.337131 0.916738 0
M  V30 4 C 0.957106 1.019414 1.026877 0
M  V30 5 C 1.194306 2.341828 0.711951 0
M  V30 6 C 2.465961 2.856121 0.870096 0
M  V30 7 C 3.491381 2.047788 1.341069 0
M  V30 8 S 5.082092 2.718344 1.531327 0
M  V30 9 O 5.248220 3.886032 0.576951 0
M  V30 10 O 6.182766 1.770334 1.227952 0
M  V30 11 N 5.234080 3.370066 3.134837 0
M  V30 12 C 4.299478 4.424138 3.373835 0
M  V30 13 C 3.170254 3.894395 4.199938 0
M  V30 14 C 3.684667 2.599998 4.738315 0
M  V30 15 C 5.044194 2.347737 4.130337 0
M  V30 16 C 3.221919 0.732405 1.646333 0
M  V30 17 C 1.960181 0.170020 1.504059 0
M  V30 18 C -1.565773 -1.000399 -0.848262 0
M  V30 19 C -2.682245 -1.253484 -0.078220 0
M  V30 20 C -3.696600 -1.992705 -0.649873 0
M  V30 21 C -3.688309 -2.502014 -1.931330 0
M  V30 22 C -4.780159 -3.291292 -2.525264 0
M  V30 23 N -4.682007 -4.702944 -2.357682 0
M  V30 24 C -4.656859 -5.188150 -1.020149 0
M  V30 25 C -3.982072 -6.558080 -0.932384 0
M  V30 26 O -4.312829 -7.244009 -2.085869 0
M  V30 27 C -3.566241 -6.737142 -3.149280 0
M  V30 28 C -3.637552 -5.227274 -3.209662 0
M  V30 29 C -2.542555 -2.228626 -2.687731 0
M  V30 30 C -1.502285 -1.485415 -2.138749 0
M  V30 31 H -1.120996 0.200739 1.592857 0
M  V30 32 H 0.311277 2.865146 0.354911 0
M  V30 33 H 2.587955 3.905522 0.604433 0
M  V30 34 H 4.809585 5.199725 4.011382 0
M  V30 35 H 3.977074 4.907191 2.440343 0
M  V30 36 H 2.891834 4.600328 5.033063 0
M  V30 37 H 2.245677 3.815363 3.597094 0
M  V30 38 H 2.985712 1.750624 4.609344 0
M  V30 39 H 3.834411 2.710510 5.838972 0
M  V30 40 H 5.174481 1.349345 3.698605 0
M  V30 41 H 5.860901 2.475095 4.879526 0
M  V30 42 H 4.022529 0.079019 2.020204 0
M  V30 43 H 1.823427 -0.857830 1.760190 0
M  V30 44 H -2.733830 -0.874332 0.932937 0
M  V30 45 H -4.557006 -2.169314 -0.019271 0
M  V30 46 H -5.791195 -2.886397 -2.245822 0
M  V30 47 H -4.741685 -3.111558 -3.639760 0
M  V30 48 H -4.257186 -4.523132 -0.256274 0
M  V30 49 H -5.732726 -5.382823 -0.736794 0
M  V30 50 H -4.420969 -7.089431 -0.064373 0
M  V30 51 H -2.878946 -6.425802 -0.815864 0
M  V30 52 H -3.943084 -7.197972 -4.085761 0
M  V30 53 H -2.522416 -7.082796 -3.002684 0
M  V30 54 H -2.647124 -4.835905 -2.977024 0
M  V30 55 H -3.896263 -4.949237 -4.251700 0
M  V30 56 H -2.407174 -2.567430 -3.706248 0
M  V30 57 H -0.623023 -1.284992 -2.742493 0
M  V30 END ATOM
M  V30 BEGIN BOND
M  V30 1 2 1 2
M  V30 2 1 2 3
M  V30 3 1 3 4
M  V30 4 2 4 5
M  V30 5 1 5 6
M  V30 6 2 6 7
M  V30 7 1 7 8
M  V30 8 2 8 9
M  V30 9 2 8 10
M  V30 10 1 8 11
M  V30 11 1 11 12
M  V30 12 1 12 13
M  V30 13 1 13 14
M  V30 14 1 14 15
M  V30 15 1 7 16
M  V30 16 2 16 17
M  V30 17 1 2 18
M  V30 18 2 18 19
M  V30 19 1 19 20
M  V30 20 2 20 21
M  V30 21 1 21 22
M  V30 22 1 22 23
M  V30 23 1 23 24
M  V30 24 1 24 25
M  V30 25 1 25 26
M  V30 26 1 26 27
M  V30 27 1 27 28
M  V30 28 1 21 29
M  V30 29 2 29 30
M  V30 30 1 17 4
M  V30 31 1 30 18
M  V30 32 1 15 11
M  V30 33 1 28 23
M  V30 34 1 3 31
M  V30 35 1 5 32
M  V30 36 1 6 33
M  V30 37 1 12 34
M  V30 38 1 12 35
M  V30 39 1 13 36
M  V30 40 1 13 37
M  V30 41 1 14 38
M  V30 42 1 14 39
M  V30 43 1 15 40
M  V30 44 1 15 41
M  V30 45 1 16 42
M  V30 46 1 17 43
M  V30 47 1 19 44
M  V30 48 1 20 45
M  V30 49 1 22 46
M  V30 50 1 22 47
M  V30 51 1 24 48
M  V30 52 1 24 49
M  V30 53 1 25 50
M  V30 54 1 25 51
M  V30 55 1 27 52
M  V30 56 1 27 53
M  V30 57 1 28 54
M  V30 58 1 28 55
M  V30 59 1 29 56
M  V30 60 1 30 57
M  V30 END BOND
M  V30 END CTAB
M  END
>  <Dataset>  (17) 
ChEMBL_Kinases

>  <Ligand_Instance>  (17) 
nan

>  <PDB_ID>  (17) 
nan

>  <Standardized_SMILES>  (17) 
O=C(Nc1ccc(S(=O)(=O)N2CCCC2)cc1)c1ccc(CN2CCOCC2)cc1

>  <Name>  (17) 
nan

>  <Pocket>  (17) 
nan

>  <ATP_Site>  (17) 
nan

>  <Peripheral>  (17) 
nan

>  <Num_H_Atoms_ProtBoundConf>  (17) 
nan

>  <Num_Resolved_Atoms>  (17) 
nan

>  <Num_Not_Resolved_Atoms>  (17) 
nan

$$$$
CHEMBL1579232
     RDKit          3D

  0  0  0  0  0  0  0  0  0  0999 V3000
M  V30 BEGIN CTAB
M  V30 COUNTS 48 49 0 0 0
M  V30 BEGIN ATOM
M  V30 1 C 2.101585 -4.324888 1.061473 0
M  V30 2 C 2.527187 -2.875681 1.293644 0
M  V30 3 C 2.942026 -2.331373 -0.034828 0
M  V30 4 N 3.376935 -0.936647 0.050611 0
M  V30 5 C 4.729038 -0.533093 -0.151597 0
M  V30 6 S 6.087705 -1.382686 0.096080 0
M  V30 7 S 4.641240 1.175166 -0.761840 0
M  V30 8 C 2.797820 1.210408 -0.815703 0
M  V30 9 C 2.291247 2.561397 -0.482628 0
M  V30 10 C 2.380891 0.652563 -2.130660 0
M  V30 11 C 2.594479 0.216742 0.334955 0
M  V30 12 N 1.240414 0.018801 0.668732 0 CHG=1 VAL=4
M  V30 13 O 0.537733 -0.605092 -0.332664 0 CHG=-1 VAL=1
M  V30 14 C 0.683023 0.377192 1.797448 0
M  V30 15 C -0.736360 0.085631 1.958324 0
M  V30 16 C -1.371831 -1.086462 1.608423 0
M  V30 17 C -2.726582 -1.259824 1.804730 0
M  V30 18 C -3.508649 -0.262079 2.362916 0
M  V30 19 S -5.224605 -0.522009 2.592006 0
M  V30 20 O -5.671849 0.099870 3.865962 0
M  V30 21 O -5.461635 -2.019804 2.709891 0
M  V30 22 N -6.129941 0.006268 1.239463 0
M  V30 23 C -5.769340 -0.724766 0.045052 0
M  V30 24 C -2.900139 0.924664 2.724144 0
M  V30 25 C -1.533938 1.085890 2.520590 0
M  V30 26 H 1.199362 -4.308809 0.427312 0
M  V30 27 H 2.870886 -4.900006 0.500875 0
M  V30 28 H 1.846358 -4.794414 2.019280 0
M  V30 29 H 3.384775 -2.847966 1.991989 0
M  V30 30 H 1.628339 -2.353741 1.634033 0
M  V30 31 H 2.057718 -2.377511 -0.714004 0
M  V30 32 H 3.692012 -2.995642 -0.454328 0
M  V30 33 H 2.419433 2.715712 0.618755 0
M  V30 34 H 1.239089 2.658914 -0.773023 0
M  V30 35 H 2.903804 3.367833 -0.968592 0
M  V30 36 H 3.079361 1.052281 -2.892134 0
M  V30 37 H 2.513294 -0.455612 -2.074181 0
M  V30 38 H 1.371391 0.934705 -2.462008 0
M  V30 39 H 3.101419 0.733920 1.202899 0
M  V30 40 H 1.297834 0.864110 2.541100 0
M  V30 41 H -0.740166 -1.851995 1.174598 0
M  V30 42 H -3.117842 -2.216151 1.495454 0
M  V30 43 H -6.135898 1.030920 1.089829 0
M  V30 44 H -5.558042 0.041333 -0.756378 0
M  V30 45 H -4.919761 -1.398892 0.150886 0
M  V30 46 H -6.639917 -1.367407 -0.273770 0
M  V30 47 H -3.508383 1.702218 3.159102 0
M  V30 48 H -1.137494 2.048802 2.832506 0
M  V30 END ATOM
M  V30 BEGIN BOND
M  V30 1 1 1 2
M  V30 2 1 2 3
M  V30 3 1 3 4
M  V30 4 1 4 5
M  V30 5 2 5 6
M  V30 6 1 5 7
M  V30 7 1 7 8
M  V30 8 1 8 9
M  V30 9 1 8 10
M  V30 10 1 8 11
M  V30 11 1 11 12
M  V30 12 1 12 13
M  V30 13 2 12 14
M  V30 14 1 14 15
M  V30 15 2 15 16
M  V30 16 1 16 17
M  V30 17 2 17 18
M  V30 18 1 18 19
M  V30 19 2 19 20
M  V30 20 2 19 21
M  V30 21 1 19 22
M  V30 22 1 22 23
M  V30 23 1 18 24
M  V30 24 2 24 25
M  V30 25 1 11 4
M  V30 26 1 25 15
M  V30 27 1 1 26
M  V30 28 1 1 27
M  V30 29 1 1 28
M  V30 30 1 2 29
M  V30 31 1 2 30
M  V30 32 1 3 31
M  V30 33 1 3 32
M  V30 34 1 9 33
M  V30 35 1 9 34
M  V30 36 1 9 35
M  V30 37 1 10 36
M  V30 38 1 10 37
M  V30 39 1 10 38
M  V30 40 1 11 39
M  V30 41 1 14 40
M  V30 42 1 16 41
M  V30 43 1 17 42
M  V30 44 1 22 43
M  V30 45 1 23 44
M  V30 46 1 23 45
M  V30 47 1 23 46
M  V30 48 1 24 47
M  V30 49 1 25 48
M  V30 END BOND
M  V30 END CTAB
M  END
>  <Dataset>  (18) 
ChEMBL_Kinases

>  <Ligand_Instance>  (18) 
nan

>  <PDB_ID>  (18) 
nan

>  <Standardized_SMILES>  (18) 
CCCN1C(=S)SC(C)(C)C1/[N+]([O-])=C/c1ccc(S(=O)(=O)NC)cc1

>  <Name>  (18) 
nan

>  <Pocket>  (18) 
nan

>  <ATP_Site>  (18) 
nan

>  <Peripheral>  (18) 
nan

>  <Num_H_Atoms_ProtBoundConf>  (18) 
nan

>  <Num_Resolved_Atoms>  (18) 
nan

>  <Num_Not_Resolved_Atoms>  (18) 
nan

$$$$
CHEMBL1579152
     RDKit          3D

  0  0  0  0  0  0  0  0  0  0999 V3000
M  V30 BEGIN CTAB
M  V30 COUNTS 49 52 0 0 0
M  V30 BEGIN ATOM
M  V30 1 N 2.121411 -1.865627 2.250754 0
M  V30 2 C 2.891942 -1.395915 1.530901 0
M  V30 3 C 3.843078 -0.792554 0.645502 0
M  V30 4 C 5.182580 -1.315057 0.755404 0
M  V30 5 N 6.265826 -1.732787 0.830787 0
M  V30 6 C 3.632818 0.157571 -0.234259 0
M  V30 7 C 4.735038 0.666867 -1.071617 0
M  V30 8 C 4.501513 1.617615 -1.954472 0
M  V30 9 C 3.208406 2.231737 -2.185647 0
M  V30 10 C 2.188770 1.818870 -1.468922 0
M  V30 11 N 2.402424 0.793639 -0.505250 0
M  V30 12 C 1.251016 0.398492 0.229495 0
M  V30 13 C 1.280675 1.149756 1.308765 0
M  V30 14 C 2.184519 2.170124 1.784773 0
M  V30 15 C 2.661615 2.500175 3.035298 0
M  V30 16 C 3.509101 3.585830 2.864948 0
M  V30 17 C 3.505269 3.861672 1.523194 0
M  V30 18 O 2.711993 3.004285 0.925027 0
M  V30 19 C 0.315870 -0.602241 -0.189048 0
M  V30 20 O 0.793814 -0.999710 -1.317695 0
M  V30 21 C -0.902578 -1.287097 0.179356 0
M  V30 22 C -1.577960 -1.005254 1.353750 0
M  V30 23 C -2.760521 -1.658761 1.723045 0
M  V30 24 C -3.210582 -2.606452 0.834016 0
M  V30 25 C -4.440516 -3.310976 1.166425 0
M  V30 26 C -5.273520 -3.748867 0.134262 0
M  V30 27 C -6.445215 -4.412607 0.429653 0
M  V30 28 C -6.828107 -4.662351 1.750617 0
M  V30 29 C -5.995918 -4.224689 2.767821 0
M  V30 30 C -4.827450 -3.562936 2.466255 0
M  V30 31 C -2.577209 -2.918709 -0.338869 0
M  V30 32 C -1.424392 -2.250845 -0.653020 0
M  V30 33 H 5.741001 0.287747 -0.991249 0
M  V30 34 H 5.327599 1.985974 -2.566328 0
M  V30 35 H 3.076223 3.007675 -2.925277 0
M  V30 36 H 1.216252 2.264802 -1.625431 0
M  V30 37 H 0.503816 1.049729 2.045774 0
M  V30 38 H 2.353439 1.941892 3.892658 0
M  V30 39 H 4.035746 4.063573 3.705408 0
M  V30 40 H 4.109722 4.683403 1.177595 0
M  V30 41 H -1.276584 -0.284399 2.078892 0
M  V30 42 H -3.294363 -1.441384 2.643037 0
M  V30 43 H -4.988734 -3.558533 -0.905112 0
M  V30 44 H -7.105813 -4.759479 -0.352652 0
M  V30 45 H -7.722769 -5.170420 2.045406 0
M  V30 46 H -6.247863 -4.393174 3.815634 0
M  V30 47 H -4.141818 -3.200541 3.224657 0
M  V30 48 H -2.960297 -3.664008 -1.004156 0
M  V30 49 H -0.956365 -2.523504 -1.584506 0
M  V30 END ATOM
M  V30 BEGIN BOND
M  V30 1 3 1 2
M  V30 2 1 2 3
M  V30 3 1 3 4
M  V30 4 3 4 5
M  V30 5 2 3 6 CFG=2
M  V30 6 1 6 7
M  V30 7 2 7 8
M  V30 8 1 8 9
M  V30 9 2 9 10
M  V30 10 1 10 11
M  V30 11 1 11 12
M  V30 12 2 12 13
M  V30 13 1 13 14
M  V30 14 2 14 15
M  V30 15 1 15 16
M  V30 16 2 16 17
M  V30 17 1 17 18
M  V30 18 1 12 19
M  V30 19 2 19 20
M  V30 20 1 19 21
M  V30 21 2 21 22
M  V30 22 1 22 23
M  V30 23 2 23 24
M  V30 24 1 24 25
M  V30 25 2 25 26
M  V30 26 1 26 27
M  V30 27 2 27 28
M  V30 28 1 28 29
M  V30 29 2 29 30
M  V30 30 1 24 31
M  V30 31 2 31 32
M  V30 32 1 11 6
M  V30 33 1 18 14
M  V30 34 1 32 21
M  V30 35 1 30 25
M  V30 36 1 7 33
M  V30 37 1 8 34
M  V30 38 1 9 35
M  V30 39 1 10 36
M  V30 40 1 13 37
M  V30 41 1 15 38
M  V30 42 1 16 39
M  V30 43 1 17 40
M  V30 44 1 22 41
M  V30 45 1 23 42
M  V30 46 1 26 43
M  V30 47 1 27 44
M  V30 48 1 28 45
M  V30 49 1 29 46
M  V30 50 1 30 47
M  V30 51 1 31 48
M  V30 52 1 32 49
M  V30 END BOND
M  V30 END CTAB
M  END
>  <Dataset>  (19) 
ChEMBL_Kinases

>  <Ligand_Instance>  (19) 
nan

>  <PDB_ID>  (19) 
nan

>  <Standardized_SMILES>  (19) 
N#CC(C#N)=C1C=CC=CN1/C(=C\c1ccco1)C(=O)c1ccc(-c2ccccc2)cc1

>  <Name>  (19) 
nan

>  <Pocket>  (19) 
nan

>  <ATP_Site>  (19) 
nan

>  <Peripheral>  (19) 
nan

>  <Num_H_Atoms_ProtBoundConf>  (19) 
nan

>  <Num_Resolved_Atoms>  (19) 
nan

>  <Num_Not_Resolved_Atoms>  (19) 
nan

$$$$
CHEMBL1579037
     RDKit          3D

  0  0  0  0  0  0  0  0  0  0999 V3000
M  V30 BEGIN CTAB
M  V30 COUNTS 29 30 0 0 0
M  V30 BEGIN ATOM
M  V30 1 O 0.602585 -1.070089 0.785164 0
M  V30 2 C -0.575565 -1.406536 0.493720 0
M  V30 3 C 0.020615 -2.784815 0.607098 0
M  V30 4 N 1.417805 -2.546349 0.949204 0 CHG=1 VAL=4
M  V30 5 C 1.650869 -2.483362 2.290590 0
M  V30 6 C 2.976541 -2.255924 2.680843 0
M  V30 7 C 4.034041 -2.096092 1.797166 0
M  V30 8 C 3.680332 -2.179029 0.461680 0
M  V30 9 C 2.394302 -2.400492 0.037327 0
M  V30 10 N -1.867922 -0.945919 0.192294 0
M  V30 11 C -1.811767 0.482764 0.237290 0
M  V30 12 C -1.496441 1.126481 -0.950706 0
M  V30 13 C -1.443743 2.502996 -0.901506 0
M  V30 14 C -1.697863 3.150237 0.283539 0
M  V30 15 C -2.011853 2.495709 1.463862 0
M  V30 16 C -2.071640 1.112307 1.442852 0
M  V30 17 Br -2.493105 0.093114 2.999749 0
M  V30 18 H -0.481129 -3.399920 1.364229 0
M  V30 19 H 0.012675 -3.308215 -0.372523 0
M  V30 20 H 0.885836 -2.596933 3.043762 0
M  V30 21 H 3.144943 -2.208421 3.760187 0
M  V30 22 H 5.031797 -1.923371 2.176220 0
M  V30 23 H 4.509861 -2.053913 -0.245589 0
M  V30 24 H 2.144252 -2.460963 -1.008687 0
M  V30 25 H -2.465693 -1.786152 0.029692 0
M  V30 26 H -1.306225 0.562146 -1.853332 0
M  V30 27 H -1.199465 3.058164 -1.810809 0
M  V30 28 H -1.655537 4.238819 0.319743 0
M  V30 29 H -2.205606 3.031359 2.375635 0
M  V30 END ATOM
M  V30 BEGIN BOND
M  V30 1 2 1 2
M  V30 2 1 2 3
M  V30 3 1 3 4
M  V30 4 2 4 5
M  V30 5 1 5 6
M  V30 6 2 6 7
M  V30 7 1 7 8
M  V30 8 2 8 9
M  V30 9 1 2 10
M  V30 10 1 10 11
M  V30 11 2 11 12
M  V30 12 1 12 13
M  V30 13 2 13 14
M  V30 14 1 14 15
M  V30 15 2 15 16
M  V30 16 1 16 17
M  V30 17 1 9 4
M  V30 18 1 16 11
M  V30 19 1 3 18
M  V30 20 1 3 19
M  V30 21 1 5 20
M  V30 22 1 6 21
M  V30 23 1 7 22
M  V30 24 1 8 23
M  V30 25 1 9 24
M  V30 26 1 10 25
M  V30 27 1 12 26
M  V30 28 1 13 27
M  V30 29 1 14 28
M  V30 30 1 15 29
M  V30 END BOND
M  V30 END CTAB
M  END
>  <Dataset>  (20) 
ChEMBL_Kinases

>  <Ligand_Instance>  (20) 
nan

>  <PDB_ID>  (20) 
nan

>  <Standardized_SMILES>  (20) 
O=C(C[n+]1ccccc1)Nc1ccccc1Br

>  <Name>  (20) 
nan

>  <Pocket>  (20) 
nan

>  <ATP_Site>  (20) 
nan

>  <Peripheral>  (20) 
nan

>  <Num_H_Atoms_ProtBoundConf>  (20) 
nan

>  <Num_Resolved_Atoms>  (20) 
nan

>  <Num_Not_Resolved_Atoms>  (20) 
nan

$$$$
CHEMBL1579034
     RDKit          3D

  0  0  0  0  0  0  0  0  0  0999 V3000
M  V30 BEGIN CTAB
M  V30 COUNTS 56 59 0 0 0
M  V30 BEGIN ATOM
M  V30 1 C 0.595544 -2.893937 6.749899 0
M  V30 2 C 0.948004 -2.548014 5.344989 0
M  V30 3 C 1.975695 -1.629415 5.218631 0
M  V30 4 C 2.378162 -1.242223 3.957688 0
M  V30 5 C 3.489370 -0.248690 3.802955 0
M  V30 6 C 1.785519 -1.744440 2.819334 0
M  V30 7 C 2.169074 -1.373720 1.548797 0
M  V30 8 C 1.604810 -1.849616 0.373250 0
M  V30 9 C 2.129500 -1.358327 -0.885945 0
M  V30 10 N 1.336239 -0.375165 -1.573777 0
M  V30 11 C 1.563610 1.027516 -1.285028 0
M  V30 12 C 0.711949 1.554491 -0.188905 0
M  V30 13 C -0.553175 2.113236 -0.198242 0
M  V30 14 C -0.932794 2.458567 1.082993 0
M  V30 15 C 0.149953 2.085233 1.848499 0
M  V30 16 O 1.057918 1.575540 1.069161 0
M  V30 17 C 0.344607 -0.692272 -2.542673 0
M  V30 18 O -0.037814 -1.801841 -2.992823 0
M  V30 19 N -0.443581 0.261389 -3.220739 0
M  V30 20 C -1.464609 -0.009183 -4.208349 0
M  V30 21 C -2.743956 -0.480202 -3.637370 0
M  V30 22 C -3.583249 0.587540 -3.292685 0
M  V30 23 C -4.841771 0.350713 -2.743244 0
M  V30 24 C -5.321458 -0.903604 -2.513030 0
M  V30 25 C -4.481404 -1.951672 -2.858474 0
M  V30 26 C -3.236535 -1.738464 -3.401811 0
M  V30 27 C 0.604456 -2.748024 0.653566 0
M  V30 28 O -0.061471 -3.320280 -0.405604 0
M  V30 29 N 0.178564 -3.154821 1.858834 0
M  V30 30 C 0.765807 -2.656632 2.978555 0
M  V30 31 C 0.336786 -3.067022 4.214889 0
M  V30 32 H -0.237371 -3.613417 6.770254 0
M  V30 33 H 1.476357 -3.245816 7.310385 0
M  V30 34 H 0.192851 -1.937588 7.195659 0
M  V30 35 H 2.509210 -1.173388 6.067826 0
M  V30 36 H 3.130093 0.745765 3.476860 0
M  V30 37 H 4.287064 -0.656689 3.126373 0
M  V30 38 H 3.992410 -0.099708 4.788981 0
M  V30 39 H 2.978522 -0.652612 1.544111 0
M  V30 40 H 3.173492 -0.994723 -0.722624 0
M  V30 41 H 2.244428 -2.201954 -1.644288 0
M  V30 42 H 2.649148 1.165085 -0.996367 0
M  V30 43 H 1.438299 1.691676 -2.158736 0
M  V30 44 H -1.165784 2.267351 -1.050669 0
M  V30 45 H -1.852638 2.912887 1.423962 0
M  V30 46 H 0.232087 2.198950 2.932440 0
M  V30 47 H -0.314466 1.302572 -3.026250 0
M  V30 48 H -1.617018 0.866468 -4.873741 0
M  V30 49 H -1.083344 -0.855957 -4.851102 0
M  V30 50 H -3.362117 1.635611 -3.407050 0
M  V30 51 H -5.516136 1.165734 -2.465687 0
M  V30 52 H -6.263276 -1.189314 -2.099469 0
M  V30 53 H -4.707893 -3.015905 -2.742131 0
M  V30 54 H -2.556992 -2.516949 -3.687910 0
M  V30 55 H -0.982077 -3.063571 -0.728523 0
M  V30 56 H -0.445096 -3.767034 4.367199 0
M  V30 END ATOM
M  V30 BEGIN BOND
M  V30 1 1 1 2
M  V30 2 2 2 3
M  V30 3 1 3 4
M  V30 4 1 4 5
M  V30 5 2 4 6
M  V30 6 1 6 7
M  V30 7 2 7 8
M  V30 8 1 8 9
M  V30 9 1 9 10
M  V30 10 1 10 11
M  V30 11 1 11 12
M  V30 12 2 12 13
M  V30 13 1 13 14
M  V30 14 2 14 15
M  V30 15 1 15 16
M  V30 16 1 10 17
M  V30 17 2 17 18
M  V30 18 1 17 19
M  V30 19 1 19 20
M  V30 20 1 20 21
M  V30 21 2 21 22
M  V30 22 1 22 23
M  V30 23 2 23 24
M  V30 24 1 24 25
M  V30 25 2 25 26
M  V30 26 1 8 27
M  V30 27 1 27 28
M  V30 28 2 27 29
M  V30 29 1 29 30
M  V30 30 2 30 31
M  V30 31 1 31 2
M  V30 32 1 30 6
M  V30 33 1 16 12
M  V30 34 1 26 21
M  V30 35 1 1 32
M  V30 36 1 1 33
M  V30 37 1 1 34
M  V30 38 1 3 35
M  V30 39 1 5 36
M  V30 40 1 5 37
M  V30 41 1 5 38
M  V30 42 1 7 39
M  V30 43 1 9 40
M  V30 44 1 9 41
M  V30 45 1 11 42
M  V30 46 1 11 43
M  V30 47 1 13 44
M  V30 48 1 14 45
M  V30 49 1 15 46
M  V30 50 1 19 47
M  V30 51 1 20 48
M  V30 52 1 20 49
M  V30 53 1 22 50
M  V30 54 1 23 51
M  V30 55 1 24 52
M  V30 56 1 25 53
M  V30 57 1 26 54
M  V30 58 1 28 55
M  V30 59 1 31 56
M  V30 END BOND
M  V30 END CTAB
M  END
>  <Dataset>  (21) 
ChEMBL_Kinases

>  <Ligand_Instance>  (21) 
nan

>  <PDB_ID>  (21) 
nan

>  <Standardized_SMILES>  (21) 
Cc1cc(C)c2cc(CN(Cc3ccco3)C(=O)NCc3ccccc3)c(O)nc2c1

>  <Name>  (21) 
nan

>  <Pocket>  (21) 
nan

>  <ATP_Site>  (21) 
nan

>  <Peripheral>  (21) 
nan

>  <Num_H_Atoms_ProtBoundConf>  (21) 
nan

>  <Num_Resolved_Atoms>  (21) 
nan

>  <Num_Not_Resolved_Atoms>  (21) 
nan

$$$$
CHEMBL1578997
     RDKit          3D

  0  0  0  0  0  0  0  0  0  0999 V3000
M  V30 BEGIN CTAB
M  V30 COUNTS 33 35 0 0 0
M  V30 BEGIN ATOM
M  V30 1 O -2.985688 -4.947901 3.402180 0
M  V30 2 C -3.265314 -4.798857 2.184529 0
M  V30 3 O -4.232349 -5.676261 1.765129 0
M  V30 4 C -2.619884 -3.800929 1.342023 0
M  V30 5 C -2.915285 -3.625111 0.005769 0
M  V30 6 C -2.310812 -2.683827 -0.801464 0
M  V30 7 C -1.344457 -1.870815 -0.208838 0
M  V30 8 N -0.668307 -0.871039 -0.967051 0
M  V30 9 C 0.336065 0.043480 -0.540302 0
M  V30 10 C 1.475935 -0.616843 -0.291986 0
M  V30 11 Cl 1.618546 -2.344164 -0.489488 0
M  V30 12 C 2.679018 0.109254 0.167863 0
M  V30 13 O 3.762396 -0.509950 0.405038 0
M  V30 14 C 2.621296 1.557085 0.351849 0
M  V30 15 C 3.703717 2.292501 0.776987 0
M  V30 16 C 3.557345 3.660591 0.923438 0
M  V30 17 C 2.374933 4.317816 0.661998 0
M  V30 18 C 1.272218 3.572759 0.229465 0
M  V30 19 C 1.438899 2.207972 0.089535 0
M  V30 20 C 0.257127 1.508551 -0.360249 0
M  V30 21 O -0.864583 1.955407 -0.632815 0
M  V30 22 C -1.056345 -2.053998 1.126291 0
M  V30 23 C -1.661746 -2.996079 1.932998 0
M  V30 24 H -4.155938 -6.687037 1.954546 0
M  V30 25 H -3.663410 -4.253700 -0.455267 0
M  V30 26 H -2.568936 -2.576686 -1.842572 0
M  V30 27 H -0.916942 -0.763814 -1.980663 0
M  V30 28 H 4.649688 1.782524 0.988345 0
M  V30 29 H 4.451055 4.166011 1.260310 0
M  V30 30 H 2.360499 5.389285 0.806582 0
M  V30 31 H 0.343216 4.097047 0.025152 0
M  V30 32 H -0.307090 -1.438092 1.625142 0
M  V30 33 H -1.423889 -3.127255 2.980632 0
M  V30 END ATOM
M  V30 BEGIN BOND
M  V30 1 2 1 2
M  V30 2 1 2 3
M  V30 3 1 2 4
M  V30 4 2 4 5
M  V30 5 1 5 6
M  V30 6 2 6 7
M  V30 7 1 7 8
M  V30 8 1 8 9
M  V30 9 2 9 10
M  V30 10 1 10 11
M  V30 11 1 10 12
M  V30 12 2 12 13
M  V30 13 1 12 14
M  V30 14 2 14 15
M  V30 15 1 15 16
M  V30 16 2 16 17
M  V30 17 1 17 18
M  V30 18 2 18 19
M  V30 19 1 19 20
M  V30 20 2 20 21
M  V30 21 1 7 22
M  V30 22 2 22 23
M  V30 23 1 23 4
M  V30 24 1 20 9
M  V30 25 1 19 14
M  V30 26 1 3 24
M  V30 27 1 5 25
M  V30 28 1 6 26
M  V30 29 1 8 27
M  V30 30 1 15 28
M  V30 31 1 16 29
M  V30 32 1 17 30
M  V30 33 1 18 31
M  V30 34 1 22 32
M  V30 35 1 23 33
M  V30 END BOND
M  V30 END CTAB
M  END
>  <Dataset>  (22) 
ChEMBL_Kinases

>  <Ligand_Instance>  (22) 
nan

>  <PDB_ID>  (22) 
nan

>  <Standardized_SMILES>  (22) 
O=C(O)c1ccc(NC2=C(Cl)C(=O)c3ccccc3C2=O)cc1

>  <Name>  (22) 
nan

>  <Pocket>  (22) 
nan

>  <ATP_Site>  (22) 
nan

>  <Peripheral>  (22) 
nan

>  <Num_H_Atoms_ProtBoundConf>  (22) 
nan

>  <Num_Resolved_Atoms>  (22) 
nan

>  <Num_Not_Resolved_Atoms>  (22) 
nan

$$$$
CHEMBL1578978
     RDKit          3D

  0  0  0  0  0  0  0  0  0  0999 V3000
M  V30 BEGIN CTAB
M  V30 COUNTS 37 37 0 0 0
M  V30 BEGIN ATOM
M  V30 1 C -2.015327 -2.968895 3.279064 0
M  V30 2 O -1.611607 -3.179393 1.987512 0
M  V30 3 C -0.380497 -3.787793 1.845534 0
M  V30 4 C -0.168913 -3.905525 0.330429 0
M  V30 5 C 1.125724 -4.588696 0.004489 0
M  V30 6 N -0.186562 -2.577368 -0.254245 0
M  V30 7 C 0.850639 -1.814014 -0.031352 0
M  V30 8 S 2.331146 -2.198114 0.925547 0
M  V30 9 N 0.792606 -0.507712 -0.629560 0
M  V30 10 C -0.497740 0.046238 -0.966267 0
M  V30 11 C -0.238043 1.426113 -1.576619 0
M  V30 12 C 0.465397 2.300134 -0.590987 0
M  V30 13 C 1.820435 2.617941 -0.632583 0
M  V30 14 C 2.317352 3.452898 0.373081 0
M  V30 15 C 1.488385 3.938241 1.364642 0
M  V30 16 Cl 2.194397 4.987089 2.599100 0
M  V30 17 C 0.130555 3.627665 1.417612 0
M  V30 18 C -0.346263 2.804596 0.421387 0
M  V30 19 Cl -2.061160 2.439194 0.527686 0
M  V30 20 H -1.324308 -2.320284 3.859259 0
M  V30 21 H -2.967008 -2.377303 3.210422 0
M  V30 22 H -2.280609 -3.914838 3.780147 0
M  V30 23 H -0.382815 -4.799017 2.300022 0
M  V30 24 H 0.454660 -3.235751 2.305389 0
M  V30 25 H -1.026536 -4.493493 -0.064367 0
M  V30 26 H 0.916116 -5.614722 -0.382978 0
M  V30 27 H 1.802911 -4.703625 0.858553 0
M  V30 28 H 1.675867 -4.069005 -0.819761 0
M  V30 29 H 2.612960 -1.196111 1.848457 0
M  V30 30 H 1.699490 -0.011932 -0.794978 0
M  V30 31 H -0.935324 -0.599638 -1.753662 0
M  V30 32 H -1.180941 0.100896 -0.121390 0
M  V30 33 H 0.397975 1.310793 -2.474720 0
M  V30 34 H -1.204599 1.921036 -1.809247 0
M  V30 35 H 2.390349 2.198658 -1.436063 0
M  V30 36 H 3.378610 3.690231 0.324132 0
M  V30 37 H -0.439674 4.045083 2.219288 0
M  V30 END ATOM
M  V30 BEGIN BOND
M  V30 1 1 1 2
M  V30 2 1 2 3
M  V30 3 1 3 4
M  V30 4 1 4 5
M  V30 5 1 4 6
M  V30 6 2 6 7 CFG=2
M  V30 7 1 7 8
M  V30 8 1 7 9
M  V30 9 1 9 10
M  V30 10 1 10 11
M  V30 11 1 11 12
M  V30 12 2 12 13
M  V30 13 1 13 14
M  V30 14 2 14 15
M  V30 15 1 15 16
M  V30 16 1 15 17
M  V30 17 2 17 18
M  V30 18 1 18 19
M  V30 19 1 18 12
M  V30 20 1 1 20
M  V30 21 1 1 21
M  V30 22 1 1 22
M  V30 23 1 3 23
M  V30 24 1 3 24
M  V30 25 1 4 25
M  V30 26 1 5 26
M  V30 27 1 5 27
M  V30 28 1 5 28
M  V30 29 1 8 29
M  V30 30 1 9 30
M  V30 31 1 10 31
M  V30 32 1 10 32
M  V30 33 1 11 33
M  V30 34 1 11 34
M  V30 35 1 13 35
M  V30 36 1 14 36
M  V30 37 1 17 37
M  V30 END BOND
M  V30 END CTAB
M  END
>  <Dataset>  (23) 
ChEMBL_Kinases

>  <Ligand_Instance>  (23) 
nan

>  <PDB_ID>  (23) 
nan

>  <Standardized_SMILES>  (23) 
COCC(C)N=C(S)NCCc1ccc(Cl)cc1Cl

>  <Name>  (23) 
nan

>  <Pocket>  (23) 
nan

>  <ATP_Site>  (23) 
nan

>  <Peripheral>  (23) 
nan

>  <Num_H_Atoms_ProtBoundConf>  (23) 
nan

>  <Num_Resolved_Atoms>  (23) 
nan

>  <Num_Not_Resolved_Atoms>  (23) 
nan

$$$$
CHEMBL1578957
     RDKit          3D

  0  0  0  0  0  0  0  0  0  0999 V3000
M  V30 BEGIN CTAB
M  V30 COUNTS 40 41 0 0 0
M  V30 BEGIN ATOM
M  V30 1 C -1.875327 -3.646934 0.770387 0
M  V30 2 O -1.526634 -3.063477 1.996063 0
M  V30 3 C -0.330815 -2.398634 2.130183 0
M  V30 4 C 0.567936 -2.287296 1.059321 0
M  V30 5 C 1.815352 -1.616533 1.138259 0
M  V30 6 C 2.497255 -1.650353 -0.196490 0
M  V30 7 C 2.157921 -0.438744 -0.979491 0
M  V30 8 O 2.796505 0.616176 -0.638262 0
M  V30 9 N 1.181927 -0.527741 -2.013036 0
M  V30 10 C 0.711206 0.548082 -2.897335 0
M  V30 11 N 0.717631 1.172208 -3.954277 0
M  V30 12 C -0.032522 2.237009 -4.131366 0
M  V30 13 C -0.864121 2.708771 -3.139894 0
M  V30 14 C -1.845238 3.806519 -2.829959 0
M  V30 15 S -0.454683 1.405863 -1.840283 0
M  V30 16 C 2.206629 -1.015393 2.348492 0
M  V30 17 C 1.264282 -1.195103 3.274548 0
M  V30 18 O 1.504916 -0.651370 4.557248 0
M  V30 19 C 2.670716 0.030585 4.857833 0
M  V30 20 C 0.051597 -1.795148 3.354727 0
M  V30 21 O -0.826594 -1.897577 4.430905 0
M  V30 22 C -1.944701 -1.023349 4.535377 0
M  V30 23 H -1.859709 -2.908276 -0.072099 0
M  V30 24 H -1.131652 -4.441816 0.526454 0
M  V30 25 H -2.895458 -4.096218 0.772232 0
M  V30 26 H 0.202491 -2.773732 0.149348 0
M  V30 27 H 2.220819 -2.561211 -0.710484 0
M  V30 28 H 3.610409 -1.717630 -0.059329 0
M  V30 29 H 0.696132 -1.421647 -2.231997 0
M  V30 30 H -0.135587 2.876667 -4.990029 0
M  V30 31 H -2.598151 3.423582 -2.080352 0
M  V30 32 H -1.290491 4.682682 -2.384273 0
M  V30 33 H -2.383967 4.067417 -3.753727 0
M  V30 34 H 3.135432 -0.561264 2.274086 0
M  V30 35 H 3.463408 -0.093827 4.113308 0
M  V30 36 H 3.098764 -0.266886 5.853762 0
M  V30 37 H 2.440116 1.138778 4.869691 0
M  V30 38 H -2.797750 -1.683349 4.777174 0
M  V30 39 H -1.831511 -0.249180 5.284086 0
M  V30 40 H -2.183056 -0.580101 3.535027 0
M  V30 END ATOM
M  V30 BEGIN BOND
M  V30 1 1 1 2
M  V30 2 1 2 3
M  V30 3 2 3 4
M  V30 4 1 4 5
M  V30 5 1 5 6
M  V30 6 1 6 7
M  V30 7 2 7 8
M  V30 8 1 7 9
M  V30 9 1 9 10
M  V30 10 2 10 11
M  V30 11 1 11 12
M  V30 12 2 12 13
M  V30 13 1 13 14
M  V30 14 1 13 15
M  V30 15 2 5 16
M  V30 16 1 16 17
M  V30 17 1 17 18
M  V30 18 1 18 19
M  V30 19 2 17 20
M  V30 20 1 20 21
M  V30 21 1 21 22
M  V30 22 1 20 3
M  V30 23 1 15 10
M  V30 24 1 1 23
M  V30 25 1 1 24
M  V30 26 1 1 25
M  V30 27 1 4 26
M  V30 28 1 6 27
M  V30 29 1 6 28
M  V30 30 1 9 29
M  V30 31 1 12 30
M  V30 32 1 14 31
M  V30 33 1 14 32
M  V30 34 1 14 33
M  V30 35 1 16 34
M  V30 36 1 19 35
M  V30 37 1 19 36
M  V30 38 1 19 37
M  V30 39 1 22 38
M  V30 40 1 22 39
M  V30 41 1 22 40
M  V30 END BOND
M  V30 END CTAB
M  END
>  <Dataset>  (24) 
ChEMBL_Kinases

>  <Ligand_Instance>  (24) 
nan

>  <PDB_ID>  (24) 
nan

>  <Standardized_SMILES>  (24) 
COc1cc(CC(=O)Nc2ncc(C)s2)cc(OC)c1OC

>  <Name>  (24) 
nan

>  <Pocket>  (24) 
nan

>  <ATP_Site>  (24) 
nan

>  <Peripheral>  (24) 
nan

>  <Num_H_Atoms_ProtBoundConf>  (24) 
nan

>  <Num_Resolved_Atoms>  (24) 
nan

>  <Num_Not_Resolved_Atoms>  (24) 
nan

$$$$
CHEMBL157892
     RDKit          3D

  0  0  0  0  0  0  0  0  0  0999 V3000
M  V30 BEGIN CTAB
M  V30 COUNTS 57 62 0 0 0
M  V30 BEGIN ATOM
M  V30 1 C -0.259984 -0.080283 4.833661 0
M  V30 2 N 1.013767 -0.614283 4.592108 0
M  V30 3 C 1.537055 -1.296338 5.743353 0
M  V30 4 C 1.937079 0.025955 3.767765 0
M  V30 5 C 1.675195 -0.012852 2.310173 0
M  V30 6 C 0.370372 0.571354 1.811519 0
M  V30 7 N 0.260682 0.513161 0.398480 0
M  V30 8 C 0.815203 1.569582 -0.277707 0
M  V30 9 C 1.488756 2.748869 0.089230 0
M  V30 10 C 1.983587 3.693676 -0.733762 0
M  V30 11 C 1.823581 3.502231 -2.070821 0
M  V30 12 C 1.180256 2.382419 -2.524783 0
M  V30 13 C 0.695486 1.452043 -1.644819 0
M  V30 14 C 0.035325 0.265874 -1.817970 0
M  V30 15 C -0.332266 -0.345963 -3.007785 0
M  V30 16 C -0.976973 -1.556635 -2.901691 0
M  V30 17 C -1.219764 -2.086367 -1.665562 0
M  V30 18 C -1.840816 -3.250243 -1.361602 0
M  V30 19 C -2.428490 -4.321424 -1.971743 0
M  V30 20 C -2.986971 -5.400533 -1.337649 0
M  V30 21 C -2.989435 -5.475041 0.037396 0
M  V30 22 C -2.402174 -4.404498 0.659703 0
M  V30 23 C -1.822073 -3.284683 0.025271 0
M  V30 24 N -1.217512 -2.189950 0.552315 0
M  V30 25 C -1.160641 -2.057608 1.977406 0
M  V30 26 C -0.849288 -1.461844 -0.495756 0
M  V30 27 C -0.209611 -0.267855 -0.571764 0
M  V30 28 C -1.235424 -1.929248 -4.267260 0
M  V30 29 O -1.777429 -2.898476 -4.792267 0
M  V30 30 N -0.777436 -0.999460 -5.199945 0
M  V30 31 C -0.150848 0.075282 -4.424606 0
M  V30 32 H -1.139405 -0.638037 4.475954 0
M  V30 33 H -0.396581 -0.108292 5.976661 0
M  V30 34 H -0.381644 1.019850 4.640248 0
M  V30 35 H 1.200264 -0.788000 6.690759 0
M  V30 36 H 1.087353 -2.322725 5.738438 0
M  V30 37 H 2.618012 -1.421590 5.751575 0
M  V30 38 H 2.150621 1.104311 4.113308 0
M  V30 39 H 2.992443 -0.409356 3.879486 0
M  V30 40 H 2.534678 0.513059 1.742611 0
M  V30 41 H 1.821419 -1.068046 1.954870 0
M  V30 42 H -0.467329 0.302671 2.430048 0
M  V30 43 H 0.474309 1.674842 2.120625 0
M  V30 44 H 1.656652 2.969950 1.155941 0
M  V30 45 H 2.486846 4.572433 -0.404520 0
M  V30 46 H 2.193443 4.216162 -2.778587 0
M  V30 47 H 1.080908 2.282361 -3.593600 0
M  V30 48 H -2.482418 -4.372844 -3.030216 0
M  V30 49 H -3.431118 -6.206204 -1.902521 0
M  V30 50 H -3.424817 -6.317312 0.511034 0
M  V30 51 H -2.446405 -4.548014 1.746189 0
M  V30 52 H -0.183322 -2.064386 2.416763 0
M  V30 53 H -1.875738 -1.234878 2.318639 0
M  V30 54 H -1.669960 -2.931336 2.500064 0
M  V30 55 H -0.745257 -0.841722 -6.216126 0
M  V30 56 H 0.902169 0.208586 -4.711009 0
M  V30 57 H -0.672321 1.027901 -4.566431 0
M  V30 END ATOM
M  V30 BEGIN BOND
M  V30 1 1 1 2
M  V30 2 1 2 3
M  V30 3 1 2 4
M  V30 4 1 4 5
M  V30 5 1 5 6
M  V30 6 1 6 7
M  V30 7 1 7 8
M  V30 8 2 8 9
M  V30 9 1 9 10
M  V30 10 2 10 11
M  V30 11 1 11 12
M  V30 12 2 12 13
M  V30 13 1 13 14
M  V30 14 2 14 15
M  V30 15 1 15 16
M  V30 16 2 16 17
M  V30 17 1 17 18
M  V30 18 2 18 19
M  V30 19 1 19 20
M  V30 20 2 20 21
M  V30 21 1 21 22
M  V30 22 2 22 23
M  V30 23 1 23 24
M  V30 24 1 24 25
M  V30 25 1 24 26
M  V30 26 2 26 27
M  V30 27 1 16 28
M  V30 28 2 28 29
M  V30 29 1 28 30
M  V30 30 1 30 31
M  V30 31 1 27 7
M  V30 32 1 13 8
M  V30 33 1 27 14
M  V30 34 1 31 15
M  V30 35 1 26 17
M  V30 36 1 23 18
M  V30 37 1 1 32
M  V30 38 1 1 33
M  V30 39 1 1 34
M  V30 40 1 3 35
M  V30 41 1 3 36
M  V30 42 1 3 37
M  V30 43 1 4 38
M  V30 44 1 4 39
M  V30 45 1 5 40
M  V30 46 1 5 41
M  V30 47 1 6 42
M  V30 48 1 6 43
M  V30 49 1 9 44
M  V30 50 1 10 45
M  V30 51 1 11 46
M  V30 52 1 12 47
M  V30 53 1 19 48
M  V30 54 1 20 49
M  V30 55 1 21 50
M  V30 56 1 22 51
M  V30 57 1 25 52
M  V30 58 1 25 53
M  V30 59 1 25 54
M  V30 60 1 30 55
M  V30 61 1 31 56
M  V30 62 1 31 57
M  V30 END BOND
M  V30 END CTAB
M  END
>  <Dataset>  (25) 
ChEMBL_Kinases

>  <Ligand_Instance>  (25) 
nan

>  <PDB_ID>  (25) 
nan

>  <Standardized_SMILES>  (25) 
CN(C)CCCn1c2ccccc2c2c3c(c4c5ccccc5n(C)c4c21)C(=O)NC3

>  <Name>  (25) 
nan

>  <Pocket>  (25) 
nan

>  <ATP_Site>  (25) 
nan

>  <Peripheral>  (25) 
nan

>  <Num_H_Atoms_ProtBoundConf>  (25) 
nan

>  <Num_Resolved_Atoms>  (25) 
nan

>  <Num_Not_Resolved_Atoms>  (25) 
nan

$$$$
CHEMBL1578764
     RDKit          3D

  0  0  0  0  0  0  0  0  0  0999 V3000
M  V30 BEGIN CTAB
M  V30 COUNTS 38 41 0 0 0
M  V30 BEGIN ATOM
M  V30 1 C -2.373233 -4.681775 4.805222 0
M  V30 2 C -1.810978 -3.802712 3.755711 0
M  V30 3 N -0.820170 -2.986225 4.150104 0
M  V30 4 C -0.436766 -2.259301 3.038324 0
M  V30 5 S 0.647951 -0.972702 2.259278 0
M  V30 6 C -0.083141 -1.147371 0.652195 0
M  V30 7 C 0.452037 -0.285406 -0.424970 0
M  V30 8 C 1.918411 -0.582433 -0.466654 0
M  V30 9 C 2.578164 -1.399284 -1.394563 0
M  V30 10 C 3.928936 -1.433303 -1.113817 0
M  V30 11 C 4.019373 -0.616589 -0.005045 0
M  V30 12 O 2.857751 -0.129308 0.363090 0
M  V30 13 N 0.243782 1.094750 -0.225526 0
M  V30 14 C -1.093162 1.546757 -0.104725 0
M  V30 15 C -1.040881 3.079460 -0.153503 0
M  V30 16 O 0.023371 3.583201 0.563478 0
M  V30 17 C 1.256817 3.211650 0.040327 0
M  V30 18 C 1.147099 1.991632 -0.850431 0
M  V30 19 C -1.027090 -2.093338 0.795150 0
M  V30 20 O -1.699912 -2.348423 -0.393559 0
M  V30 21 N -1.200014 -2.649024 1.998723 0
M  V30 22 N -2.016017 -3.579996 2.469424 0
M  V30 23 H -2.918569 -5.534828 4.305611 0
M  V30 24 H -3.036349 -4.162740 5.524051 0
M  V30 25 H -1.572011 -5.191682 5.388231 0
M  V30 26 H 0.050244 -0.558064 -1.422834 0
M  V30 27 H 2.093440 -1.933996 -2.223147 0
M  V30 28 H 4.735500 -1.954188 -1.612459 0
M  V30 29 H 4.960702 -0.393461 0.519095 0
M  V30 30 H -1.682322 1.233942 -0.987933 0
M  V30 31 H -1.597475 1.297230 0.849149 0
M  V30 32 H -0.926574 3.395207 -1.210730 0
M  V30 33 H -1.966657 3.517259 0.264504 0
M  V30 34 H 1.934669 2.997959 0.917178 0
M  V30 35 H 1.728276 4.026384 -0.543649 0
M  V30 36 H 0.703532 2.326467 -1.810947 0
M  V30 37 H 2.129659 1.581121 -1.042495 0
M  V30 38 H -2.633676 -2.008004 -0.589678 0
M  V30 END ATOM
M  V30 BEGIN BOND
M  V30 1 1 1 2
M  V30 2 1 2 3
M  V30 3 2 3 4
M  V30 4 1 4 5
M  V30 5 1 5 6
M  V30 6 1 6 7
M  V30 7 1 7 8
M  V30 8 2 8 9
M  V30 9 1 9 10
M  V30 10 2 10 11
M  V30 11 1 11 12
M  V30 12 1 7 13
M  V30 13 1 13 14
M  V30 14 1 14 15
M  V30 15 1 15 16
M  V30 16 1 16 17
M  V30 17 1 17 18
M  V30 18 2 6 19
M  V30 19 1 19 20
M  V30 20 1 19 21
M  V30 21 1 21 22
M  V30 22 2 22 2
M  V30 23 1 21 4
M  V30 24 1 12 8
M  V30 25 1 18 13
M  V30 26 1 1 23
M  V30 27 1 1 24
M  V30 28 1 1 25
M  V30 29 1 7 26
M  V30 30 1 9 27
M  V30 31 1 10 28
M  V30 32 1 11 29
M  V30 33 1 14 30
M  V30 34 1 14 31
M  V30 35 1 15 32
M  V30 36 1 15 33
M  V30 37 1 17 34
M  V30 38 1 17 35
M  V30 39 1 18 36
M  V30 40 1 18 37
M  V30 41 1 20 38
M  V30 END BOND
M  V30 END CTAB
M  END
>  <Dataset>  (26) 
ChEMBL_Kinases

>  <Ligand_Instance>  (26) 
nan

>  <PDB_ID>  (26) 
nan

>  <Standardized_SMILES>  (26) 
Cc1nc2sc(C(c3ccco3)N3CCOCC3)c(O)n2n1

>  <Name>  (26) 
nan

>  <Pocket>  (26) 
nan

>  <ATP_Site>  (26) 
nan

>  <Peripheral>  (26) 
nan

>  <Num_H_Atoms_ProtBoundConf>  (26) 
nan

>  <Num_Resolved_Atoms>  (26) 
nan

>  <Num_Not_Resolved_Atoms>  (26) 
nan

$$$$
CHEMBL1578607
     RDKit          3D

  0  0  0  0  0  0  0  0  0  0999 V3000
M  V30 BEGIN CTAB
M  V30 COUNTS 34 36 0 0 0
M  V30 BEGIN ATOM
M  V30 1 C 1.527405 -5.196093 2.407300 0
M  V30 2 C 2.384761 -4.003520 2.470378 0
M  V30 3 C 3.593991 -3.931166 3.131022 0
M  V30 4 C 4.390054 -2.803925 3.182515 0
M  V30 5 C 3.920500 -1.668516 2.512762 0
M  V30 6 C 2.722513 -1.689580 1.840282 0
M  V30 7 C 2.191072 -0.519584 1.123094 0
M  V30 8 N 2.807983 0.692083 1.042980 0
M  V30 9 N 2.021717 1.473842 0.319014 0
M  V30 10 C 0.921578 0.767801 -0.054757 0
M  V30 11 N -0.246338 1.061206 -0.821959 0
M  V30 12 C -1.423549 1.570673 -0.215697 0
M  V30 13 O -1.360347 1.741353 1.029824 0
M  V30 14 C -2.664252 1.900029 -0.916469 0
M  V30 15 C -3.687544 2.383842 -0.127036 0
M  V30 16 C -4.897405 2.714819 -0.746771 0
M  V30 17 C -5.029118 2.546805 -2.128954 0
M  V30 18 Cl -6.556408 2.962858 -2.922542 0
M  V30 19 C -3.982714 2.059373 -2.889130 0
M  V30 20 C -2.769200 1.725361 -2.280635 0
M  V30 21 O 1.048279 -0.440086 0.446137 0
M  V30 22 C 1.967214 -2.847653 1.822877 0
M  V30 23 H 1.487655 -5.512324 1.341443 0
M  V30 24 H 0.545808 -5.105888 2.867644 0
M  V30 25 H 2.063256 -6.047860 2.919360 0
M  V30 26 H 3.915315 -4.853294 3.640905 0
M  V30 27 H 5.320719 -2.761563 3.695705 0
M  V30 28 H 4.458625 -0.726886 2.483771 0
M  V30 29 H -0.266631 0.908536 -1.853632 0
M  V30 30 H -3.618944 2.525843 0.943932 0
M  V30 31 H -5.769974 3.102238 -0.235627 0
M  V30 32 H -4.058161 1.918995 -3.965279 0
M  V30 33 H -1.970273 1.349972 -2.881940 0
M  V30 34 H 1.010807 -2.841177 1.277729 0
M  V30 END ATOM
M  V30 BEGIN BOND
M  V30 1 1 1 2
M  V30 2 2 2 3
M  V30 3 1 3 4
M  V30 4 2 4 5
M  V30 5 1 5 6
M  V30 6 1 6 7
M  V30 7 2 7 8
M  V30 8 1 8 9
M  V30 9 2 9 10
M  V30 10 1 10 11
M  V30 11 1 11 12
M  V30 12 2 12 13
M  V30 13 1 12 14
M  V30 14 2 14 15
M  V30 15 1 15 16
M  V30 16 2 16 17
M  V30 17 1 17 18
M  V30 18 1 17 19
M  V30 19 2 19 20
M  V30 20 1 10 21
M  V30 21 2 6 22
M  V30 22 1 22 2
M  V30 23 1 21 7
M  V30 24 1 20 14
M  V30 25 1 1 23
M  V30 26 1 1 24
M  V30 27 1 1 25
M  V30 28 1 3 26
M  V30 29 1 4 27
M  V30 30 1 5 28
M  V30 31 1 11 29
M  V30 32 1 15 30
M  V30 33 1 16 31
M  V30 34 1 19 32
M  V30 35 1 20 33
M  V30 36 1 22 34
M  V30 END BOND
M  V30 END CTAB
M  END
>  <Dataset>  (27) 
ChEMBL_Kinases

>  <Ligand_Instance>  (27) 
nan

>  <PDB_ID>  (27) 
nan

>  <Standardized_SMILES>  (27) 
Cc1cccc(-c2nnc(NC(=O)c3ccc(Cl)cc3)o2)c1

>  <Name>  (27) 
nan

>  <Pocket>  (27) 
nan

>  <ATP_Site>  (27) 
nan

>  <Peripheral>  (27) 
nan

>  <Num_H_Atoms_ProtBoundConf>  (27) 
nan

>  <Num_Resolved_Atoms>  (27) 
nan

>  <Num_Not_Resolved_Atoms>  (27) 
nan

$$$$
CHEMBL1578557
     RDKit          3D

  0  0  0  0  0  0  0  0  0  0999 V3000
M  V30 BEGIN CTAB
M  V30 COUNTS 47 49 0 0 0
M  V30 BEGIN ATOM
M  V30 1 C 0.614855 -8.021607 0.487679 0
M  V30 2 C 0.422946 -7.766215 -0.983665 0
M  V30 3 O -0.066129 -6.492497 -1.277945 0
M  V30 4 C 0.581248 -5.314883 -0.944953 0
M  V30 5 C 1.779564 -5.149538 -0.288799 0
M  V30 6 C 2.361241 -3.960406 0.007861 0
M  V30 7 C 1.752864 -2.774551 -0.350249 0
M  V30 8 N 2.159642 -1.541422 -0.150436 0
M  V30 9 C 1.587008 -0.538213 -0.485070 0
M  V30 10 N 2.047014 0.836331 -0.258852 0
M  V30 11 C 1.547686 1.291132 0.987941 0
M  V30 12 O 0.830201 0.542032 1.704688 0
M  V30 13 C 1.886851 2.685385 1.446150 0
M  V30 14 C 1.394603 3.726580 0.493067 0
M  V30 15 C 1.783414 5.089678 1.039901 0
M  V30 16 S 1.105144 2.969096 3.056301 0
M  V30 17 C -0.662397 2.990401 2.971935 0
M  V30 18 N -1.404442 2.822933 1.870378 0
M  V30 19 C -2.738270 2.852882 1.896642 0
M  V30 20 C -3.570905 2.670701 0.698958 0
M  V30 21 C -3.408084 3.062758 3.090685 0
M  V30 22 C -2.627690 3.234212 4.221008 0
M  V30 23 O -3.280835 3.445681 5.426738 0
M  V30 24 N -1.276041 3.197799 4.157724 0
M  V30 25 S 0.077378 -1.200812 -1.302888 0
M  V30 26 C 0.532658 -2.932668 -1.018622 0
M  V30 27 C -0.068594 -4.160942 -1.325265 0
M  V30 28 H 1.645909 -8.322966 0.731722 0
M  V30 29 H -0.036273 -8.867600 0.853910 0
M  V30 30 H 0.337873 -7.139090 1.086900 0
M  V30 31 H -0.324557 -8.492540 -1.349715 0
M  V30 32 H 1.391562 -7.970607 -1.500020 0
M  V30 33 H 2.266173 -6.095140 -0.002237 0
M  V30 34 H 3.324552 -3.990071 0.538568 0
M  V30 35 H 2.627300 1.472283 -0.815078 0
M  V30 36 H 2.977207 2.728248 1.605199 0
M  V30 37 H 1.728727 3.565041 -0.550035 0
M  V30 38 H 0.296891 3.719645 0.460664 0
M  V30 39 H 1.949542 5.823131 0.221069 0
M  V30 40 H 1.024840 5.493244 1.739413 0
M  V30 41 H 2.743550 5.054030 1.613723 0
M  V30 42 H -4.153389 1.717355 0.833316 0
M  V30 43 H -3.004566 2.528077 -0.232301 0
M  V30 44 H -4.252411 3.541014 0.597649 0
M  V30 45 H -4.470201 3.093913 3.155154 0
M  V30 46 H -3.831901 2.705894 5.808714 0
M  V30 47 H -1.011671 -4.071978 -1.845931 0
M  V30 END ATOM
M  V30 BEGIN BOND
M  V30 1 1 1 2
M  V30 2 1 2 3
M  V30 3 1 3 4
M  V30 4 2 4 5
M  V30 5 1 5 6
M  V30 6 2 6 7
M  V30 7 1 7 8
M  V30 8 2 8 9
M  V30 9 1 9 10
M  V30 10 1 10 11
M  V30 11 2 11 12
M  V30 12 1 11 13
M  V30 13 1 13 14
M  V30 14 1 14 15
M  V30 15 1 13 16
M  V30 16 1 16 17
M  V30 17 2 17 18
M  V30 18 1 18 19
M  V30 19 1 19 20
M  V30 20 2 19 21
M  V30 21 1 21 22
M  V30 22 1 22 23
M  V30 23 2 22 24
M  V30 24 1 9 25
M  V30 25 1 25 26
M  V30 26 2 26 27
M  V30 27 1 27 4
M  V30 28 1 26 7
M  V30 29 1 24 17
M  V30 30 1 1 28
M  V30 31 1 1 29
M  V30 32 1 1 30
M  V30 33 1 2 31
M  V30 34 1 2 32
M  V30 35 1 5 33
M  V30 36 1 6 34
M  V30 37 1 10 35
M  V30 38 1 13 36
M  V30 39 1 14 37
M  V30 40 1 14 38
M  V30 41 1 15 39
M  V30 42 1 15 40
M  V30 43 1 15 41
M  V30 44 1 20 42
M  V30 45 1 20 43
M  V30 46 1 20 44
M  V30 47 1 21 45
M  V30 48 1 23 46
M  V30 49 1 27 47
M  V30 END BOND
M  V30 END CTAB
M  END
>  <Dataset>  (28) 
ChEMBL_Kinases

>  <Ligand_Instance>  (28) 
nan

>  <PDB_ID>  (28) 
nan

>  <Standardized_SMILES>  (28) 
CCOc1ccc2nc(NC(=O)C(CC)Sc3nc(C)cc(O)n3)sc2c1

>  <Name>  (28) 
nan

>  <Pocket>  (28) 
nan

>  <ATP_Site>  (28) 
nan

>  <Peripheral>  (28) 
nan

>  <Num_H_Atoms_ProtBoundConf>  (28) 
nan

>  <Num_Resolved_Atoms>  (28) 
nan

>  <Num_Not_Resolved_Atoms>  (28) 
nan

$$$$
CHEMBL1578546
     RDKit          3D

  0  0  0  0  0  0  0  0  0  0999 V3000
M  V30 BEGIN CTAB
M  V30 COUNTS 33 35 0 0 0
M  V30 BEGIN ATOM
M  V30 1 C -1.324346 -2.510591 2.792623 0
M  V30 2 S 0.319378 -1.760600 2.989033 0
M  V30 3 C 1.417776 -2.630753 1.850988 0
M  V30 4 C 2.068878 -3.745735 2.324362 0
M  V30 5 C 2.923676 -4.463891 1.517242 0
M  V30 6 C 3.115384 -4.042363 0.220041 0
M  V30 7 C 2.436010 -2.919532 -0.196162 0
M  V30 8 C 1.575219 -2.170940 0.567951 0
M  V30 9 N 0.865027 -1.017329 0.171441 0
M  V30 10 C 0.838026 -0.338391 -1.060697 0
M  V30 11 O 1.547087 -0.793361 -1.996654 0
M  V30 12 C 0.058046 0.852709 -1.353372 0
M  V30 13 N 0.103743 1.459413 -2.553281 0
M  V30 14 O -0.691536 2.502723 -2.541203 0
M  V30 15 C -1.269000 2.615978 -1.373543 0
M  V30 16 C -0.819482 1.581889 -0.581879 0
M  V30 17 C -1.467917 1.698399 0.740057 0
M  V30 18 C -2.740409 2.476889 0.405989 0
M  V30 19 C -2.227011 3.462035 -0.618682 0
M  V30 20 H -2.087727 -1.918432 3.360000 0
M  V30 21 H -1.578974 -2.513232 1.705235 0
M  V30 22 H -1.261992 -3.536511 3.189687 0
M  V30 23 H 1.906806 -4.058939 3.338323 0
M  V30 24 H 3.438519 -5.334003 1.869457 0
M  V30 25 H 3.778866 -4.581316 -0.441818 0
M  V30 26 H 2.619200 -2.630608 -1.217544 0
M  V30 27 H 0.244569 -0.547567 0.863555 0
M  V30 28 H -1.714987 0.728878 1.217904 0
M  V30 29 H -0.880592 2.345999 1.402957 0
M  V30 30 H -3.193813 2.944331 1.286770 0
M  V30 31 H -3.414790 1.749394 -0.106913 0
M  V30 32 H -3.024961 3.889649 -1.243194 0
M  V30 33 H -1.617695 4.223732 -0.093566 0
M  V30 END ATOM
M  V30 BEGIN BOND
M  V30 1 1 1 2
M  V30 2 1 2 3
M  V30 3 2 3 4
M  V30 4 1 4 5
M  V30 5 2 5 6
M  V30 6 1 6 7
M  V30 7 2 7 8
M  V30 8 1 8 9
M  V30 9 1 9 10
M  V30 10 2 10 11
M  V30 11 1 10 12
M  V30 12 2 12 13
M  V30 13 1 13 14
M  V30 14 1 14 15
M  V30 15 2 15 16
M  V30 16 1 16 17
M  V30 17 1 17 18
M  V30 18 1 18 19
M  V30 19 1 8 3
M  V30 20 1 16 12
M  V30 21 1 19 15
M  V30 22 1 1 20
M  V30 23 1 1 21
M  V30 24 1 1 22
M  V30 25 1 4 23
M  V30 26 1 5 24
M  V30 27 1 6 25
M  V30 28 1 7 26
M  V30 29 1 9 27
M  V30 30 1 17 28
M  V30 31 1 17 29
M  V30 32 1 18 30
M  V30 33 1 18 31
M  V30 34 1 19 32
M  V30 35 1 19 33
M  V30 END BOND
M  V30 END CTAB
M  END
>  <Dataset>  (29) 
ChEMBL_Kinases

>  <Ligand_Instance>  (29) 
nan

>  <PDB_ID>  (29) 
nan

>  <Standardized_SMILES>  (29) 
CSc1ccccc1NC(=O)c1noc2c1CCC2

>  <Name>  (29) 
nan

>  <Pocket>  (29) 
nan

>  <ATP_Site>  (29) 
nan

>  <Peripheral>  (29) 
nan

>  <Num_H_Atoms_ProtBoundConf>  (29) 
nan

>  <Num_Resolved_Atoms>  (29) 
nan

>  <Num_Not_Resolved_Atoms>  (29) 
nan

$$$$
CHEMBL1578525
     RDKit          3D

  0  0  0  0  0  0  0  0  0  0999 V3000
M  V30 BEGIN CTAB
M  V30 COUNTS 56 60 0 0 0
M  V30 BEGIN ATOM
M  V30 1 O 1.280984 -1.901300 -0.729655 0
M  V30 2 C 1.965543 -0.966551 -0.201337 0
M  V30 3 C 2.890484 -0.082231 -0.936173 0
M  V30 4 C 3.228875 -0.035230 -2.264248 0
M  V30 5 C 4.139558 0.925968 -2.645670 0
M  V30 6 C 4.712825 1.821299 -1.772148 0
M  V30 7 C 4.345824 1.739735 -0.443262 0
M  V30 8 C 3.439274 0.796966 -0.012794 0
M  V30 9 C 2.858833 0.458897 1.279026 0
M  V30 10 O 3.196133 1.122038 2.314668 0
M  V30 11 N 1.931815 -0.642637 1.190674 0
M  V30 12 C 1.194768 -1.214012 2.270646 0
M  V30 13 C -0.130290 -0.613301 2.559476 0
M  V30 14 C 0.016070 0.833627 2.908671 0
M  V30 15 C 0.530619 1.154954 4.165274 0
M  V30 16 C 0.702260 2.459371 4.569928 0
M  V30 17 C 0.363726 3.510072 3.725779 0
M  V30 18 C -0.145724 3.215506 2.480672 0
M  V30 19 C -0.311359 1.904477 2.092438 0
M  V30 20 C -0.863833 1.443295 0.768823 0
M  V30 21 C -1.903429 0.388097 1.140922 0
M  V30 22 N -1.152152 -0.799827 1.563550 0
M  V30 23 C -1.532412 -2.018511 0.947428 0
M  V30 24 O -0.865119 -3.036804 1.298587 0
M  V30 25 C -2.634783 -2.085405 -0.034777 0
M  V30 26 N -2.792144 -3.446905 -0.526299 0
M  V30 27 C -4.015678 -3.510432 -1.346736 0
M  V30 28 C -4.252936 -4.979936 -1.611896 0
M  V30 29 O -3.103146 -5.748163 -1.585087 0
M  V30 30 C -1.981773 -5.099695 -2.069313 0
M  V30 31 C -1.686759 -3.784911 -1.430437 0
M  V30 32 H 2.793238 -0.725531 -2.968787 0
M  V30 33 H 4.459197 1.026868 -3.688083 0
M  V30 34 H 5.425536 2.567990 -2.090590 0
M  V30 35 H 4.784740 2.439588 0.277444 0
M  V30 36 H 1.828091 -1.040258 3.196345 0
M  V30 37 H 1.111232 -2.321737 2.208268 0
M  V30 38 H -0.515597 -1.105688 3.501081 0
M  V30 39 H 0.815455 0.379625 4.872400 0
M  V30 40 H 1.097917 2.736781 5.534720 0
M  V30 41 H 0.457523 4.562067 3.942315 0
M  V30 42 H -0.450840 3.924764 1.722442 0
M  V30 43 H -0.108692 0.998249 0.125421 0
M  V30 44 H -1.337103 2.282751 0.237450 0
M  V30 45 H -2.424885 0.756121 2.049168 0
M  V30 46 H -2.624227 0.189404 0.346472 0
M  V30 47 H -2.509031 -1.407007 -0.906887 0
M  V30 48 H -3.597009 -1.789020 0.443054 0
M  V30 49 H -3.936046 -2.946436 -2.278482 0
M  V30 50 H -4.826428 -3.100128 -0.672997 0
M  V30 51 H -4.894250 -5.352619 -0.758161 0
M  V30 52 H -4.892228 -5.154755 -2.513571 0
M  V30 53 H -1.980595 -5.001658 -3.191777 0
M  V30 54 H -1.109364 -5.763119 -1.855392 0
M  V30 55 H -0.761058 -3.774212 -0.843152 0
M  V30 56 H -1.608126 -2.996358 -2.232584 0
M  V30 END ATOM
M  V30 BEGIN BOND
M  V30 1 2 1 2
M  V30 2 1 2 3
M  V30 3 2 3 4
M  V30 4 1 4 5
M  V30 5 2 5 6
M  V30 6 1 6 7
M  V30 7 2 7 8
M  V30 8 1 8 9
M  V30 9 2 9 10
M  V30 10 1 9 11
M  V30 11 1 11 12
M  V30 12 1 12 13
M  V30 13 1 13 14
M  V30 14 2 14 15
M  V30 15 1 15 16
M  V30 16 2 16 17
M  V30 17 1 17 18
M  V30 18 2 18 19
M  V30 19 1 19 20
M  V30 20 1 20 21
M  V30 21 1 21 22
M  V30 22 1 22 23
M  V30 23 2 23 24
M  V30 24 1 23 25
M  V30 25 1 25 26
M  V30 26 1 26 27
M  V30 27 1 27 28
M  V30 28 1 28 29
M  V30 29 1 29 30
M  V30 30 1 30 31
M  V30 31 1 11 2
M  V30 32 1 22 13
M  V30 33 1 31 26
M  V30 34 1 8 3
M  V30 35 1 19 14
M  V30 36 1 4 32
M  V30 37 1 5 33
M  V30 38 1 6 34
M  V30 39 1 7 35
M  V30 40 1 12 36
M  V30 41 1 12 37
M  V30 42 1 13 38
M  V30 43 1 15 39
M  V30 44 1 16 40
M  V30 45 1 17 41
M  V30 46 1 18 42
M  V30 47 1 20 43
M  V30 48 1 20 44
M  V30 49 1 21 45
M  V30 50 1 21 46
M  V30 51 1 25 47
M  V30 52 1 25 48
M  V30 53 1 27 49
M  V30 54 1 27 50
M  V30 55 1 28 51
M  V30 56 1 28 52
M  V30 57 1 30 53
M  V30 58 1 30 54
M  V30 59 1 31 55
M  V30 60 1 31 56
M  V30 END BOND
M  V30 END CTAB
M  END
>  <Dataset>  (30) 
ChEMBL_Kinases

>  <Ligand_Instance>  (30) 
nan

>  <PDB_ID>  (30) 
nan

>  <Standardized_SMILES>  (30) 
O=C1c2ccccc2C(=O)N1CC1c2ccccc2CCN1C(=O)CN1CCOCC1

>  <Name>  (30) 
nan

>  <Pocket>  (30) 
nan

>  <ATP_Site>  (30) 
nan

>  <Peripheral>  (30) 
nan

>  <Num_H_Atoms_ProtBoundConf>  (30) 
nan

>  <Num_Resolved_Atoms>  (30) 
nan

>  <Num_Not_Resolved_Atoms>  (30) 
nan

$$$$
CHEMBL1578334
     RDKit          3D

  0  0  0  0  0  0  0  0  0  0999 V3000
M  V30 BEGIN CTAB
M  V30 COUNTS 54 57 0 0 0
M  V30 BEGIN ATOM
M  V30 1 C 4.588024 -2.191775 6.139293 0
M  V30 2 O 3.839398 -1.953233 4.984599 0
M  V30 3 C 4.641858 -2.016390 3.860918 0
M  V30 4 C 3.842899 -1.756763 2.572058 0
M  V30 5 C 3.223212 -0.408303 2.611564 0
M  V30 6 N 2.451475 -0.065992 1.443401 0
M  V30 7 C 3.158325 0.523929 0.329066 0
M  V30 8 O 4.432679 0.678317 0.248772 0
M  V30 9 C 2.220802 0.941861 -0.739844 0
M  V30 10 O 2.754110 1.544285 -1.901411 0
M  V30 11 C 0.996609 0.612468 -0.292343 0
M  V30 12 C -0.124965 0.927279 -1.155781 0
M  V30 13 O 0.192095 1.454609 -2.283670 0
M  V30 14 C -1.539206 0.761167 -0.987138 0
M  V30 15 C -2.208593 0.314813 0.119917 0
M  V30 16 C -3.566098 0.136839 0.256576 0
M  V30 17 C -4.372190 0.431369 -0.820250 0
M  V30 18 C -3.775333 0.887260 -1.972828 0
M  V30 19 C -2.413515 1.038475 -2.031766 0
M  V30 20 C -4.855236 1.134413 -2.988727 0
M  V30 21 C -6.028269 0.448969 -2.367870 0
M  V30 22 C -6.310348 -0.876283 -3.014833 0
M  V30 23 O -5.746799 0.355614 -0.984358 0
M  V30 24 C 1.083199 -0.091960 0.998342 0
M  V30 25 C 0.590174 -1.505949 0.900779 0
M  V30 26 C 0.170633 -2.059167 -0.301165 0
M  V30 27 C -0.323454 -3.337847 -0.441934 0
M  V30 28 C -0.414600 -4.137813 0.677474 0
M  V30 29 N -0.011476 -3.623562 1.866419 0
M  V30 30 C 0.464279 -2.371116 1.959364 0
M  V30 31 H 5.029167 -3.215603 6.037058 0
M  V30 32 H 3.984879 -2.190553 7.045937 0
M  V30 33 H 5.379536 -1.424649 6.177503 0
M  V30 34 H 5.379674 -1.190079 3.938642 0
M  V30 35 H 5.101220 -3.021654 3.821397 0
M  V30 36 H 4.624347 -1.824229 1.753475 0
M  V30 37 H 3.197683 -2.617337 2.462415 0
M  V30 38 H 2.604888 -0.364770 3.542789 0
M  V30 39 H 4.025416 0.357058 2.783008 0
M  V30 40 H 3.191759 2.450103 -1.878665 0
M  V30 41 H -1.675785 0.078387 1.004469 0
M  V30 42 H -4.038331 -0.220733 1.159490 0
M  V30 43 H -2.039106 1.406968 -2.994875 0
M  V30 44 H -4.570206 0.714553 -3.974399 0
M  V30 45 H -5.017104 2.225227 -2.994532 0
M  V30 46 H -6.945412 1.104472 -2.425881 0
M  V30 47 H -7.416792 -1.052767 -2.879057 0
M  V30 48 H -6.143586 -0.818782 -4.096299 0
M  V30 49 H -5.805151 -1.735116 -2.565904 0
M  V30 50 H 0.505562 0.427894 1.801777 0
M  V30 51 H 0.215043 -1.504840 -1.213588 0
M  V30 52 H -0.642427 -3.739110 -1.394104 0
M  V30 53 H -0.787502 -5.151913 0.670951 0
M  V30 54 H 0.773496 -2.011497 2.942466 0
M  V30 END ATOM
M  V30 BEGIN BOND
M  V30 1 1 1 2
M  V30 2 1 2 3
M  V30 3 1 3 4
M  V30 4 1 4 5
M  V30 5 1 5 6
M  V30 6 1 6 7
M  V30 7 2 7 8
M  V30 8 1 7 9
M  V30 9 1 9 10
M  V30 10 2 9 11
M  V30 11 1 11 12
M  V30 12 2 12 13
M  V30 13 1 12 14
M  V30 14 2 14 15
M  V30 15 1 15 16
M  V30 16 2 16 17
M  V30 17 1 17 18
M  V30 18 2 18 19
M  V30 19 1 18 20
M  V30 20 1 20 21
M  V30 21 1 21 22
M  V30 22 1 21 23
M  V30 23 1 11 24
M  V30 24 1 24 25
M  V30 25 2 25 26
M  V30 26 1 26 27
M  V30 27 2 27 28
M  V30 28 1 28 29
M  V30 29 2 29 30
M  V30 30 1 24 6
M  V30 31 1 30 25
M  V30 32 1 19 14
M  V30 33 1 23 17
M  V30 34 1 1 31
M  V30 35 1 1 32
M  V30 36 1 1 33
M  V30 37 1 3 34
M  V30 38 1 3 35
M  V30 39 1 4 36
M  V30 40 1 4 37
M  V30 41 1 5 38
M  V30 42 1 5 39
M  V30 43 1 10 40
M  V30 44 1 15 41
M  V30 45 1 16 42
M  V30 46 1 19 43
M  V30 47 1 20 44
M  V30 48 1 20 45
M  V30 49 1 21 46
M  V30 50 1 22 47
M  V30 51 1 22 48
M  V30 52 1 22 49
M  V30 53 1 24 50
M  V30 54 1 26 51
M  V30 55 1 27 52
M  V30 56 1 28 53
M  V30 57 1 30 54
M  V30 END BOND
M  V30 END CTAB
M  END
>  <Dataset>  (31) 
ChEMBL_Kinases

>  <Ligand_Instance>  (31) 
nan

>  <PDB_ID>  (31) 
nan

>  <Standardized_SMILES>  (31) 
COCCCN1C(=O)C(O)=C(C(=O)c2ccc3c(c2)CC(C)O3)C1c1cccnc1

>  <Name>  (31) 
nan

>  <Pocket>  (31) 
nan

>  <ATP_Site>  (31) 
nan

>  <Peripheral>  (31) 
nan

>  <Num_H_Atoms_ProtBoundConf>  (31) 
nan

>  <Num_Resolved_Atoms>  (31) 
nan

>  <Num_Not_Resolved_Atoms>  (31) 
nan

$$$$
CHEMBL157822
     RDKit          3D

  0  0  0  0  0  0  0  0  0  0999 V3000
M  V30 BEGIN CTAB
M  V30 COUNTS 61 66 0 0 0
M  V30 BEGIN ATOM
M  V30 1 C 6.390242 0.106373 1.365563 0
M  V30 2 O 5.682927 -1.093840 1.450515 0
M  V30 3 C 4.310337 -1.219662 1.317861 0
M  V30 4 C 3.726018 -2.462608 1.420996 0
M  V30 5 C 2.363650 -2.478671 1.275210 0
M  V30 6 C 1.534418 -1.359098 1.034472 0
M  V30 7 C 2.139846 -0.135261 0.937058 0
M  V30 8 C 3.500468 -0.135867 1.084990 0
M  V30 9 C 1.129489 0.764931 0.717206 0
M  V30 10 C 1.183968 2.105804 0.539113 0
M  V30 11 C 0.011993 2.787646 0.321679 0
M  V30 12 C -1.166804 2.081301 0.297681 0
M  V30 13 C -2.434087 2.519738 0.128899 0
M  V30 14 C -3.109786 3.693527 -0.092396 0
M  V30 15 C -4.466134 3.839635 -0.228570 0
M  V30 16 C -5.269236 2.746895 -0.144883 0
M  V30 17 C -4.620952 1.558133 0.076296 0
M  V30 18 C -3.224208 1.395247 0.218447 0
M  V30 19 N -2.461754 0.280647 0.439098 0
M  V30 20 C -3.157817 -0.962652 0.603014 0
M  V30 21 C -1.207658 0.697364 0.485170 0
M  V30 22 C -0.045767 0.004299 0.696950 0
M  V30 23 N 0.170016 -1.305620 0.885280 0
M  V30 24 C -0.588970 -2.491755 0.890351 0
M  V30 25 C -0.656206 -3.146222 -0.493464 0
M  V30 26 O 0.646153 -3.449389 -0.871503 0
M  V30 27 C -1.509096 -4.351198 -0.477617 0
M  V30 28 N -1.103132 -5.404458 0.416832 0
M  V30 29 C 0.152604 -6.006919 -0.039687 0
M  V30 30 C -2.123109 -6.468039 0.382613 0
M  V30 31 C 0.341849 4.191090 0.159258 0
M  V30 32 O -0.330919 5.220846 -0.055339 0
M  V30 33 N 1.750159 4.388037 0.278890 0
M  V30 34 C 2.246575 3.064538 0.515952 0
M  V30 35 O 3.488642 3.003348 0.653598 0
M  V30 36 H 5.895404 0.972431 1.860901 0
M  V30 37 H 7.381634 -0.024655 1.891535 0
M  V30 38 H 6.608373 0.436699 0.330384 0
M  V30 39 H 4.351035 -3.322820 1.604805 0
M  V30 40 H 2.015481 -3.523805 1.392365 0
M  V30 41 H 4.049809 0.771705 1.023548 0
M  V30 42 H -2.577137 4.608728 -0.176100 0
M  V30 43 H -4.918134 4.807175 -0.402358 0
M  V30 44 H -6.337769 2.843305 -0.249625 0
M  V30 45 H -5.341047 0.731848 0.130281 0
M  V30 46 H -3.051037 -1.339458 1.644978 0
M  V30 47 H -4.274746 -0.846530 0.512565 0
M  V30 48 H -2.901989 -1.669744 -0.170133 0
M  V30 49 H -1.441275 -2.634679 1.524478 0
M  V30 50 H 0.072837 -3.295488 1.407698 0
M  V30 51 H -1.027810 -2.458541 -1.278872 0
M  V30 52 H 0.772646 -3.408790 -1.848568 0
M  V30 53 H -2.549921 -4.051237 -0.181581 0
M  V30 54 H -1.617406 -4.714506 -1.535159 0
M  V30 55 H 0.093754 -7.130877 0.026508 0
M  V30 56 H 0.362604 -5.787596 -1.106294 0
M  V30 57 H 1.002079 -5.701219 0.603979 0
M  V30 58 H -3.019065 -6.081481 -0.127947 0
M  V30 59 H -2.411468 -6.797807 1.385582 0
M  V30 60 H -1.754415 -7.325485 -0.224544 0
M  V30 61 H 2.296030 5.304070 0.207477 0
M  V30 END ATOM
M  V30 BEGIN BOND
M  V30 1 1 1 2
M  V30 2 1 2 3
M  V30 3 2 3 4
M  V30 4 1 4 5
M  V30 5 2 5 6
M  V30 6 1 6 7
M  V30 7 2 7 8
M  V30 8 1 7 9
M  V30 9 2 9 10
M  V30 10 1 10 11
M  V30 11 2 11 12
M  V30 12 1 12 13
M  V30 13 2 13 14
M  V30 14 1 14 15
M  V30 15 2 15 16
M  V30 16 1 16 17
M  V30 17 2 17 18
M  V30 18 1 18 19
M  V30 19 1 19 20
M  V30 20 1 19 21
M  V30 21 2 21 22
M  V30 22 1 22 23
M  V30 23 1 23 24
M  V30 24 1 24 25
M  V30 25 1 25 26
M  V30 26 1 25 27
M  V30 27 1 27 28
M  V30 28 1 28 29
M  V30 29 1 28 30
M  V30 30 1 11 31
M  V30 31 2 31 32
M  V30 32 1 31 33
M  V30 33 1 33 34
M  V30 34 2 34 35
M  V30 35 1 8 3
M  V30 36 1 22 9
M  V30 37 1 23 6
M  V30 38 1 34 10
M  V30 39 1 21 12
M  V30 40 1 18 13
M  V30 41 1 1 36
M  V30 42 1 1 37
M  V30 43 1 1 38
M  V30 44 1 4 39
M  V30 45 1 5 40
M  V30 46 1 8 41
M  V30 47 1 14 42
M  V30 48 1 15 43
M  V30 49 1 16 44
M  V30 50 1 17 45
M  V30 51 1 20 46
M  V30 52 1 20 47
M  V30 53 1 20 48
M  V30 54 1 24 49
M  V30 55 1 24 50
M  V30 56 1 25 51
M  V30 57 1 26 52
M  V30 58 1 27 53
M  V30 59 1 27 54
M  V30 60 1 29 55
M  V30 61 1 29 56
M  V30 62 1 29 57
M  V30 63 1 30 58
M  V30 64 1 30 59
M  V30 65 1 30 60
M  V30 66 1 33 61
M  V30 END BOND
M  V30 END CTAB
M  END
>  <Dataset>  (32) 
ChEMBL_Kinases

>  <Ligand_Instance>  (32) 
nan

>  <PDB_ID>  (32) 
nan

>  <Standardized_SMILES>  (32) 
COc1ccc2c(c1)c1c3c(c4c5ccccc5n(C)c4c1n2CC(O)CN(C)C)C(=O)NC3=O

>  <Name>  (32) 
nan

>  <Pocket>  (32) 
nan

>  <ATP_Site>  (32) 
nan

>  <Peripheral>  (32) 
nan

>  <Num_H_Atoms_ProtBoundConf>  (32) 
nan

>  <Num_Resolved_Atoms>  (32) 
nan

>  <Num_Not_Resolved_Atoms>  (32) 
nan

$$$$
CHEMBL1593827
     RDKit          3D

  0  0  0  0  0  0  0  0  0  0999 V3000
M  V30 BEGIN CTAB
M  V30 COUNTS 49 53 0 0 0
M  V30 BEGIN ATOM
M  V30 1 C 0.301976 -3.787764 -0.647674 0
M  V30 2 O 1.658310 -4.074091 -0.491891 0
M  V30 3 C 2.631752 -3.210422 -0.020730 0
M  V30 4 C 3.923794 -3.747079 0.038546 0
M  V30 5 C 4.962187 -2.964549 0.494740 0
M  V30 6 C 4.807493 -1.657583 0.905868 0
M  V30 7 N 5.574737 -0.666374 1.388343 0
M  V30 8 C 4.799407 0.408914 1.609177 0
M  V30 9 C 3.457884 0.162908 1.272261 0
M  V30 10 C 2.444099 1.205739 1.408635 0
M  V30 11 C 2.079477 1.951910 0.179587 0
M  V30 12 N 1.522504 1.232187 -0.902458 0
M  V30 13 C 0.237600 0.635590 -0.993945 0
M  V30 14 C -0.728309 0.720162 -0.012852 0
M  V30 15 C -1.958298 0.120472 -0.140945 0
M  V30 16 C -3.001096 0.189596 0.874435 0
M  V30 17 C -2.876222 0.858593 2.073085 0
M  V30 18 C -3.875285 0.913868 3.021277 0
M  V30 19 C -5.078905 0.284203 2.806578 0
M  V30 20 C -5.222977 -0.395439 1.603339 0
M  V30 21 C -4.206395 -0.442800 0.656017 0
M  V30 22 O -6.510738 -0.963877 1.578667 0
M  V30 23 C -7.081613 -0.880583 2.875039 0
M  V30 24 O -6.277821 0.115556 3.486757 0
M  V30 25 N -2.180146 -0.560628 -1.280266 0
M  V30 26 C -1.282115 -0.678500 -2.269262 0
M  V30 27 N -0.122859 -0.075107 -2.074180 0
M  V30 28 C 3.531530 -1.140458 0.842517 0
M  V30 29 C 2.480972 -1.905641 0.390366 0
M  V30 30 H -0.325316 -4.345152 0.084833 0
M  V30 31 H 0.060283 -2.714373 -0.521967 0
M  V30 32 H -0.052512 -4.099917 -1.667247 0
M  V30 33 H 4.156193 -4.761906 -0.259867 0
M  V30 34 H 5.975250 -3.360231 0.550212 0
M  V30 35 H 6.598866 -0.751283 1.552129 0
M  V30 36 H 5.222006 1.343775 2.007815 0
M  V30 37 H 1.542589 0.711838 1.843751 0
M  V30 38 H 2.764925 1.976663 2.166372 0
M  V30 39 H 1.283932 2.699299 0.497480 0
M  V30 40 H 2.949460 2.581697 -0.171769 0
M  V30 41 H 2.141917 1.120145 -1.757721 0
M  V30 42 H -0.537000 1.264783 0.873846 0
M  V30 43 H -1.970007 1.367438 2.301863 0
M  V30 44 H -3.740852 1.449667 3.951141 0
M  V30 45 H -4.362716 -0.978688 -0.256200 0
M  V30 46 H -8.152883 -0.607313 2.850581 0
M  V30 47 H -6.920307 -1.883367 3.348493 0
M  V30 48 H -1.526952 -1.242445 -3.160465 0
M  V30 49 H 1.475083 -1.526885 0.341288 0
M  V30 END ATOM
M  V30 BEGIN BOND
M  V30 1 1 1 2
M  V30 2 1 2 3
M  V30 3 2 3 4
M  V30 4 1 4 5
M  V30 5 2 5 6
M  V30 6 1 6 7
M  V30 7 1 7 8
M  V30 8 2 8 9
M  V30 9 1 9 10
M  V30 10 1 10 11
M  V30 11 1 11 12
M  V30 12 1 12 13
M  V30 13 2 13 14
M  V30 14 1 14 15
M  V30 15 1 15 16
M  V30 16 2 16 17
M  V30 17 1 17 18
M  V30 18 2 18 19
M  V30 19 1 19 20
M  V30 20 2 20 21
M  V30 21 1 20 22
M  V30 22 1 22 23
M  V30 23 1 23 24
M  V30 24 2 15 25
M  V30 25 1 25 26
M  V30 26 2 26 27
M  V30 27 1 9 28
M  V30 28 2 28 29
M  V30 29 1 29 3
M  V30 30 1 28 6
M  V30 31 1 27 13
M  V30 32 1 21 16
M  V30 33 1 24 19
M  V30 34 1 1 30
M  V30 35 1 1 31
M  V30 36 1 1 32
M  V30 37 1 4 33
M  V30 38 1 5 34
M  V30 39 1 7 35
M  V30 40 1 8 36
M  V30 41 1 10 37
M  V30 42 1 10 38
M  V30 43 1 11 39
M  V30 44 1 11 40
M  V30 45 1 12 41
M  V30 46 1 14 42
M  V30 47 1 17 43
M  V30 48 1 18 44
M  V30 49 1 21 45
M  V30 50 1 23 46
M  V30 51 1 23 47
M  V30 52 1 26 48
M  V30 53 1 29 49
M  V30 END BOND
M  V30 END CTAB
M  END
>  <Dataset>  (33) 
ChEMBL_Kinases

>  <Ligand_Instance>  (33) 
nan

>  <PDB_ID>  (33) 
nan

>  <Standardized_SMILES>  (33) 
COc1ccc2[nH]cc(CCNc3cc(-c4ccc5c(c4)OCO5)ncn3)c2c1

>  <Name>  (33) 
nan

>  <Pocket>  (33) 
nan

>  <ATP_Site>  (33) 
nan

>  <Peripheral>  (33) 
nan

>  <Num_H_Atoms_ProtBoundConf>  (33) 
nan

>  <Num_Resolved_Atoms>  (33) 
nan

>  <Num_Not_Resolved_Atoms>  (33) 
nan

$$$$
CHEMBL1576943
     RDKit          3D

  0  0  0  0  0  0  0  0  0  0999 V3000
M  V30 BEGIN CTAB
M  V30 COUNTS 58 61 0 0 0
M  V30 BEGIN ATOM
M  V30 1 C 6.573056 -4.846330 2.419295 0
M  V30 2 C 7.039255 -3.638275 1.648680 0
M  V30 3 O 8.111384 -3.632432 0.951550 0
M  V30 4 N 6.157181 -2.504475 1.780120 0
M  V30 5 C 4.944814 -2.439133 2.538437 0
M  V30 6 C 3.810646 -2.333254 1.525510 0
M  V30 7 N 4.112081 -1.157763 0.711606 0
M  V30 8 C 3.021535 -0.556264 0.024740 0
M  V30 9 C 3.125804 0.561089 -0.777310 0
M  V30 10 C 2.109850 1.187239 -1.464652 0
M  V30 11 C 0.856426 0.625676 -1.327641 0
M  V30 12 N -0.226964 1.237065 -2.017919 0
M  V30 13 C -1.617361 0.949381 -2.110382 0
M  V30 14 C -2.472602 1.320172 -1.194606 0
M  V30 15 C -2.027567 2.049791 -0.032768 0
M  V30 16 O -0.815825 2.342937 0.127086 0
M  V30 17 N -2.943003 2.475293 0.994210 0
M  V30 18 C -4.306012 2.124760 0.777536 0
M  V30 19 O -5.150504 2.483800 1.665458 0
M  V30 20 N -4.840472 1.409451 -0.332301 0
M  V30 21 C -6.230215 1.105506 -0.460036 0
M  V30 22 C -6.645228 -0.178914 0.135707 0
M  V30 23 C -6.603360 -1.305246 -0.677687 0
M  V30 24 C -6.991264 -2.536714 -0.138155 0
M  V30 25 C -7.407073 -2.632532 1.174958 0
M  V30 26 C -7.452606 -1.522104 1.991266 0
M  V30 27 C -7.068624 -0.292733 1.462937 0
M  V30 28 C -3.889523 1.007017 -1.328573 0
M  V30 29 O -4.237270 0.372804 -2.349640 0
M  V30 30 C 0.639017 -0.493378 -0.549524 0
M  V30 31 C 1.730204 -1.044206 0.098852 0
M  V30 32 C 5.385689 -0.523124 0.513219 0
M  V30 33 C 6.523924 -1.314514 1.084928 0
M  V30 34 H 5.534716 -5.127455 2.167967 0
M  V30 35 H 6.597616 -4.623248 3.520329 0
M  V30 36 H 7.281624 -5.693625 2.294385 0
M  V30 37 H 4.912494 -1.484595 3.102734 0
M  V30 38 H 4.772112 -3.332592 3.163872 0
M  V30 39 H 3.667222 -3.230171 0.926065 0
M  V30 40 H 2.895271 -2.145946 2.157429 0
M  V30 41 H 4.123315 1.013712 -0.890646 0
M  V30 42 H 2.313379 2.063683 -2.066709 0
M  V30 43 H -0.105973 2.072871 -2.609816 0
M  V30 44 H -1.960651 0.402711 -2.978183 0
M  V30 45 H -2.681050 3.008252 1.863023 0
M  V30 46 H -6.523585 1.117608 -1.532983 0
M  V30 47 H -6.854274 1.919011 0.011641 0
M  V30 48 H -6.294303 -1.334251 -1.711698 0
M  V30 49 H -6.969147 -3.432768 -0.750051 0
M  V30 50 H -7.696149 -3.615283 1.540359 0
M  V30 51 H -7.783186 -1.592982 3.037172 0
M  V30 52 H -7.098908 0.591275 2.093047 0
M  V30 53 H -0.354089 -0.910982 -0.462174 0
M  V30 54 H 1.504028 -1.916402 0.691477 0
M  V30 55 H 5.366423 0.512674 0.923594 0
M  V30 56 H 5.529259 -0.446483 -0.606469 0
M  V30 57 H 7.303785 -1.502729 0.308549 0
M  V30 58 H 7.049282 -0.650729 1.829452 0
M  V30 END ATOM
M  V30 BEGIN BOND
M  V30 1 1 1 2
M  V30 2 2 2 3
M  V30 3 1 2 4
M  V30 4 1 4 5
M  V30 5 1 5 6
M  V30 6 1 6 7
M  V30 7 1 7 8
M  V30 8 2 8 9
M  V30 9 1 9 10
M  V30 10 2 10 11
M  V30 11 1 11 12
M  V30 12 1 12 13
M  V30 13 2 13 14
M  V30 14 1 14 15
M  V30 15 2 15 16
M  V30 16 1 15 17
M  V30 17 1 17 18
M  V30 18 2 18 19
M  V30 19 1 18 20
M  V30 20 1 20 21
M  V30 21 1 21 22
M  V30 22 2 22 23
M  V30 23 1 23 24
M  V30 24 2 24 25
M  V30 25 1 25 26
M  V30 26 2 26 27
M  V30 27 1 20 28
M  V30 28 2 28 29
M  V30 29 1 11 30
M  V30 30 2 30 31
M  V30 31 1 7 32
M  V30 32 1 32 33
M  V30 33 1 33 4
M  V30 34 1 31 8
M  V30 35 1 28 14
M  V30 36 1 27 22
M  V30 37 1 1 34
M  V30 38 1 1 35
M  V30 39 1 1 36
M  V30 40 1 5 37
M  V30 41 1 5 38
M  V30 42 1 6 39
M  V30 43 1 6 40
M  V30 44 1 9 41
M  V30 45 1 10 42
M  V30 46 1 12 43
M  V30 47 1 13 44
M  V30 48 1 17 45
M  V30 49 1 21 46
M  V30 50 1 21 47
M  V30 51 1 23 48
M  V30 52 1 24 49
M  V30 53 1 25 50
M  V30 54 1 26 51
M  V30 55 1 27 52
M  V30 56 1 30 53
M  V30 57 1 31 54
M  V30 58 1 32 55
M  V30 59 1 32 56
M  V30 60 1 33 57
M  V30 61 1 33 58
M  V30 END BOND
M  V30 END CTAB
M  END
>  <Dataset>  (34) 
ChEMBL_Kinases

>  <Ligand_Instance>  (34) 
nan

>  <PDB_ID>  (34) 
nan

>  <Standardized_SMILES>  (34) 
CC(=O)N1CCN(c2ccc(N/C=C3\C(=O)NC(=O)N(Cc4ccccc4)C3=O)cc2)CC1

>  <Name>  (34) 
nan

>  <Pocket>  (34) 
nan

>  <ATP_Site>  (34) 
nan

>  <Peripheral>  (34) 
nan

>  <Num_H_Atoms_ProtBoundConf>  (34) 
nan

>  <Num_Resolved_Atoms>  (34) 
nan

>  <Num_Not_Resolved_Atoms>  (34) 
nan

$$$$
CHEMBL1576995
     RDKit          3D

  0  0  0  0  0  0  0  0  0  0999 V3000
M  V30 BEGIN CTAB
M  V30 COUNTS 68 71 0 0 0
M  V30 BEGIN ATOM
M  V30 1 C 7.162991 1.544045 5.601164 0
M  V30 2 C 5.877050 1.444535 6.343141 0
M  V30 3 C 4.798711 2.323158 5.845828 0
M  V30 4 C 4.286332 2.132302 4.484135 0
M  V30 5 C 5.210892 2.262601 3.330500 0
M  V30 6 C 4.348815 2.058532 2.086413 0
M  V30 7 O 3.225885 1.886526 2.651557 0
M  V30 8 N 4.678089 2.056865 0.708993 0
M  V30 9 C 3.391268 1.806411 0.103619 0
M  V30 10 C 2.618545 2.899218 -0.223304 0
M  V30 11 C 1.385360 2.622566 -0.796012 0
M  V30 12 C 1.028275 1.307775 -0.992707 0
M  V30 13 C 1.812145 0.223408 -0.660383 0
M  V30 14 C 1.378385 -1.155200 -0.887835 0
M  V30 15 N 2.074062 -2.201725 -0.599099 0
M  V30 16 O 1.361526 -3.350223 -0.947023 0
M  V30 17 C 0.005035 -2.998766 -0.973969 0
M  V30 18 C 0.077563 -1.576425 -1.480969 0
M  V30 19 C -0.698832 -3.161116 0.324720 0
M  V30 20 C -2.102455 -3.529694 -0.085328 0 CFG=2
M  V30 21 C -2.445753 -4.941187 0.249822 0
M  V30 22 N -2.415186 -5.094623 1.684265 0
M  V30 23 O -2.754087 -6.160088 0.291670 0
M  V30 24 N -2.144923 -3.391360 -1.525648 0
M  V30 25 C -3.247028 -2.956968 -2.244877 0
M  V30 26 O -4.087473 -2.750507 -1.324155 0
M  V30 27 C -4.393121 -2.504358 -3.003146 0
M  V30 28 O -5.521968 -2.194195 -2.197714 0
M  V30 29 C -6.672807 -1.755164 -2.809418 0
M  V30 30 C -6.945349 -1.547805 -4.163448 0
M  V30 31 C -8.195530 -1.095826 -4.540841 0
M  V30 32 C -9.175580 -0.846323 -3.610164 0
M  V30 33 Cl -10.744433 -0.271057 -4.188163 0
M  V30 34 C -8.936696 -1.040848 -2.276357 0
M  V30 35 C -7.692614 -1.491623 -1.890292 0
M  V30 36 C -0.818181 -3.799892 -1.921812 0
M  V30 37 C 3.023381 0.494055 -0.098401 0
M  V30 38 H 7.250277 2.447101 4.962733 0
M  V30 39 H 8.025884 1.605230 6.353203 0
M  V30 40 H 7.364526 0.622302 5.028807 0
M  V30 41 H 6.060466 1.663895 7.433806 0
M  V30 42 H 5.479212 0.391745 6.367611 0
M  V30 43 H 3.889618 2.302821 6.531505 0
M  V30 44 H 5.176019 3.395857 5.908922 0
M  V30 45 H 3.785381 1.124589 4.405919 0
M  V30 46 H 3.438726 2.848140 4.314612 0
M  V30 47 H 5.930959 1.389000 3.367995 0
M  V30 48 H 5.745117 3.197294 3.213738 0
M  V30 49 H 5.685668 2.227416 0.623657 0
M  V30 50 H 2.940663 3.916642 -0.050787 0
M  V30 51 H 0.750275 3.450369 -1.067105 0
M  V30 52 H 0.045693 1.162947 -1.447084 0
M  V30 53 H -0.776466 -1.008164 -1.120762 0
M  V30 54 H 0.222315 -1.602851 -2.564738 0
M  V30 55 H -0.195461 -4.001523 0.868069 0
M  V30 56 H -0.639433 -2.236633 0.932795 0
M  V30 57 H -2.846697 -2.882981 0.419592 0
M  V30 58 H -2.494706 -5.152831 2.733574 0
M  V30 59 H -2.097430 -5.355282 2.661252 0
M  V30 60 H -4.190597 -1.637632 -3.668503 0
M  V30 61 H -4.729728 -3.318254 -3.710718 0
M  V30 62 H -6.100494 -1.778907 -4.777106 0
M  V30 63 H -8.312051 -0.964649 -5.615523 0
M  V30 64 H -9.733760 -0.832966 -1.570126 0
M  V30 65 H -7.596751 -1.616384 -0.804019 0
M  V30 66 H -0.611461 -3.593388 -2.990726 0
M  V30 67 H -0.712173 -4.863303 -1.651072 0
M  V30 68 H 3.676893 -0.327483 0.180488 0
M  V30 END ATOM
M  V30 BEGIN BOND
M  V30 1 1 1 2
M  V30 2 1 2 3
M  V30 3 1 3 4
M  V30 4 1 4 5
M  V30 5 1 5 6
M  V30 6 2 6 7
M  V30 7 1 6 8
M  V30 8 1 8 9
M  V30 9 2 9 10
M  V30 10 1 10 11
M  V30 11 2 11 12
M  V30 12 1 12 13
M  V30 13 1 13 14
M  V30 14 2 14 15
M  V30 15 1 15 16
M  V30 16 1 16 17
M  V30 17 1 17 18
M  V30 18 1 17 19
M  V30 19 1 19 20
M  V30 20 1 20 21
M  V30 21 1 21 22
M  V30 22 2 21 23
M  V30 23 1 20 24
M  V30 24 1 24 25
M  V30 25 2 25 26
M  V30 26 1 25 27
M  V30 27 1 27 28
M  V30 28 1 28 29
M  V30 29 2 29 30
M  V30 30 1 30 31
M  V30 31 2 31 32
M  V30 32 1 32 33
M  V30 33 1 32 34
M  V30 34 2 34 35
M  V30 35 1 24 36
M  V30 36 2 13 37
M  V30 37 1 37 9
M  V30 38 1 18 14
M  V30 39 1 35 29
M  V30 40 1 36 17
M  V30 41 1 1 38
M  V30 42 1 1 39
M  V30 43 1 1 40
M  V30 44 1 2 41
M  V30 45 1 2 42
M  V30 46 1 3 43
M  V30 47 1 3 44
M  V30 48 1 4 45
M  V30 49 1 4 46
M  V30 50 1 5 47
M  V30 51 1 5 48
M  V30 52 1 8 49
M  V30 53 1 10 50
M  V30 54 1 11 51
M  V30 55 1 12 52
M  V30 56 1 18 53
M  V30 57 1 18 54
M  V30 58 1 19 55
M  V30 59 1 19 56
M  V30 60 1 20 57 CFG=1
M  V30 61 1 22 58
M  V30 62 1 22 59
M  V30 63 1 27 60
M  V30 64 1 27 61
M  V30 65 1 30 62
M  V30 66 1 31 63
M  V30 67 1 34 64
M  V30 68 1 35 65
M  V30 69 1 36 66
M  V30 70 1 36 67
M  V30 71 1 37 68
M  V30 END BOND
M  V30 END CTAB
M  END
>  <Dataset>  (35) 
ChEMBL_Kinases

>  <Ligand_Instance>  (35) 
nan

>  <PDB_ID>  (35) 
nan

>  <Standardized_SMILES>  (35) 
CCCCCC(=O)Nc1cccc(C2=NOC3(C2)C[C@H](C(N)=O)N(C(=O)COc2ccc(Cl)cc2)C3)c1

>  <Name>  (35) 
nan

>  <Pocket>  (35) 
nan

>  <ATP_Site>  (35) 
nan

>  <Peripheral>  (35) 
nan

>  <Num_H_Atoms_ProtBoundConf>  (35) 
nan

>  <Num_Resolved_Atoms>  (35) 
nan

>  <Num_Not_Resolved_Atoms>  (35) 
nan

$$$$
CHEMBL15770
     RDKit          3D

  0  0  0  0  0  0  0  0  0  0999 V3000
M  V30 BEGIN CTAB
M  V30 COUNTS 42 44 0 0 0
M  V30 BEGIN ATOM
M  V30 1 C 3.257299 -1.613585 3.120953 0
M  V30 2 C 2.808502 -0.970826 1.869356 0
M  V30 3 C 3.556748 -0.329358 0.986117 0
M  V30 4 C 5.040640 -0.099181 1.040939 0
M  V30 5 C 5.270226 1.361982 1.049260 0
M  V30 6 O 4.387608 2.285282 1.017297 0
M  V30 7 O 6.596715 1.823957 1.097292 0
M  V30 8 C 2.734881 0.160470 -0.113738 0
M  V30 9 C 3.043699 0.877846 -1.257853 0
M  V30 10 C 2.074553 1.230102 -2.158753 0
M  V30 11 F 2.395950 1.927460 -3.264367 0
M  V30 12 C 0.752093 0.849424 -1.901984 0
M  V30 13 C 0.469856 0.135797 -0.756447 0
M  V30 14 C 1.440062 -0.217751 0.146206 0
M  V30 15 C 1.447781 -0.930437 1.383032 0
M  V30 16 C 0.350446 -1.424940 1.917097 0
M  V30 17 C -1.023381 -1.391658 1.435882 0
M  V30 18 C -1.865203 -0.350470 1.847227 0
M  V30 19 C -3.179531 -0.386762 1.371157 0
M  V30 20 C -3.568855 -1.411099 0.548167 0
M  V30 21 S -5.204378 -1.466109 -0.050646 0 CHG=1 VAL=3
M  V30 22 C -6.275465 -2.356810 1.014776 0
M  V30 23 O -5.799514 0.003992 -0.525740 0 CHG=-1 VAL=1
M  V30 24 C -2.728658 -2.436288 0.147089 0
M  V30 25 C -1.414370 -2.443832 0.593596 0
M  V30 26 H 3.510481 -0.816111 3.854198 0
M  V30 27 H 4.110337 -2.296228 2.947814 0
M  V30 28 H 2.450232 -2.218421 3.560117 0
M  V30 29 H 5.540806 -0.596254 0.166419 0
M  V30 30 H 5.484833 -0.553615 1.946474 0
M  V30 31 H 6.805898 2.826865 1.134863 0
M  V30 32 H 4.056760 1.184908 -1.480976 0
M  V30 33 H 0.042979 1.162902 -2.656455 0
M  V30 34 H -0.578923 -0.078238 -0.696226 0
M  V30 35 H 0.406429 -1.953686 2.865855 0
M  V30 36 H -1.471874 0.410054 2.494142 0
M  V30 37 H -3.855605 0.410030 1.674884 0
M  V30 38 H -5.721983 -3.239628 1.402151 0
M  V30 39 H -7.199678 -2.649533 0.510830 0
M  V30 40 H -6.547917 -1.762437 1.927679 0
M  V30 41 H -3.040517 -3.245239 -0.504446 0
M  V30 42 H -0.695068 -3.205118 0.328476 0
M  V30 END ATOM
M  V30 BEGIN BOND
M  V30 1 1 1 2
M  V30 2 2 2 3
M  V30 3 1 3 4
M  V30 4 1 4 5
M  V30 5 2 5 6
M  V30 6 1 5 7
M  V30 7 1 3 8
M  V30 8 2 8 9
M  V30 9 1 9 10
M  V30 10 1 10 11
M  V30 11 2 10 12
M  V30 12 1 12 13
M  V30 13 2 13 14
M  V30 14 1 14 15
M  V30 15 2 15 16
M  V30 16 1 16 17
M  V30 17 2 17 18
M  V30 18 1 18 19
M  V30 19 2 19 20
M  V30 20 1 20 21
M  V30 21 1 21 22
M  V30 22 1 21 23
M  V30 23 1 20 24
M  V30 24 2 24 25
M  V30 25 1 15 2
M  V30 26 1 25 17
M  V30 27 1 14 8
M  V30 28 1 1 26
M  V30 29 1 1 27
M  V30 30 1 1 28
M  V30 31 1 4 29
M  V30 32 1 4 30
M  V30 33 1 7 31
M  V30 34 1 9 32
M  V30 35 1 12 33
M  V30 36 1 13 34
M  V30 37 1 16 35
M  V30 38 1 18 36
M  V30 39 1 19 37
M  V30 40 1 22 38
M  V30 41 1 22 39
M  V30 42 1 22 40
M  V30 43 1 24 41
M  V30 44 1 25 42
M  V30 END BOND
M  V30 END CTAB
M  END
>  <Dataset>  (36) 
ChEMBL_Kinases

>  <Ligand_Instance>  (36) 
nan

>  <PDB_ID>  (36) 
nan

>  <Standardized_SMILES>  (36) 
CC1=C(CC(=O)O)c2cc(F)ccc2/C1=C\c1ccc([S+](C)[O-])cc1

>  <Name>  (36) 
SULINDAC

>  <Pocket>  (36) 
nan

>  <ATP_Site>  (36) 
nan

>  <Peripheral>  (36) 
nan

>  <Num_H_Atoms_ProtBoundConf>  (36) 
nan

>  <Num_Resolved_Atoms>  (36) 
nan

>  <Num_Not_Resolved_Atoms>  (36) 
nan

$$$$
CHEMBL1577002
     RDKit          3D

  0  0  0  0  0  0  0  0  0  0999 V3000
M  V30 BEGIN CTAB
M  V30 COUNTS 47 48 0 0 0
M  V30 BEGIN ATOM
M  V30 1 C 0.385464 -6.259924 3.453820 0
M  V30 2 C 1.396608 -5.355043 2.833599 0
M  V30 3 C 2.181475 -4.533613 3.649316 0
M  V30 4 C 3.117838 -3.699150 3.051438 0
M  V30 5 C 3.266065 -3.685912 1.672922 0
M  V30 6 S 4.519974 -2.547084 1.096899 0
M  V30 7 C 3.804337 -0.922418 0.782065 0
M  V30 8 C 3.315225 -0.254792 2.072582 0
M  V30 9 C 2.728952 1.081856 1.757620 0
M  V30 10 O 2.811778 1.250456 0.506132 0
M  V30 11 O 2.202963 1.941039 2.705788 0
M  V30 12 C 1.662850 3.186999 2.303519 0
M  V30 13 C 0.513054 3.109960 1.415253 0
M  V30 14 O 0.164908 4.287324 1.153847 0
M  V30 15 N -0.207483 2.029707 0.853278 0
M  V30 16 C -1.322932 2.059246 -0.012331 0
M  V30 17 C -1.851382 0.852728 -0.415828 0
M  V30 18 C -2.936739 0.780997 -1.259578 0
M  V30 19 C -3.548896 1.917291 -1.742661 0
M  V30 20 S -4.913105 1.690777 -2.803246 0
M  V30 21 N -6.395240 1.616772 -1.945224 0
M  V30 22 O -5.013709 2.784955 -3.828992 0
M  V30 23 O -4.761541 0.402100 -3.562310 0
M  V30 24 C -3.043701 3.147140 -1.357338 0
M  V30 25 C -1.956575 3.163323 -0.511822 0
M  V30 26 C 2.481787 -4.504626 0.878566 0
M  V30 27 C 1.562822 -5.323479 1.466525 0
M  V30 28 H 0.611921 -7.341441 3.279047 0
M  V30 29 H -0.585876 -6.069862 2.931692 0
M  V30 30 H 0.227316 -6.023667 4.515740 0
M  V30 31 H 2.030569 -4.577094 4.726378 0
M  V30 32 H 3.686908 -3.093560 3.751222 0
M  V30 33 H 2.947957 -1.046318 0.076605 0
M  V30 34 H 4.557233 -0.285394 0.277535 0
M  V30 35 H 4.194485 -0.142945 2.734454 0
M  V30 36 H 2.579299 -0.926085 2.542782 0
M  V30 37 H 1.520326 3.771653 3.215773 0
M  V30 38 H 2.501666 3.698190 1.741898 0
M  V30 39 H 0.189577 1.123304 1.168290 0
M  V30 40 H -1.402101 -0.077713 -0.059896 0
M  V30 41 H -3.291929 -0.196088 -1.529720 0
M  V30 42 H -6.926292 0.752883 -2.136679 0
M  V30 43 H -6.918056 2.498300 -1.955122 0
M  V30 44 H -3.520208 4.022214 -1.733203 0
M  V30 45 H -1.609800 4.133272 -0.248802 0
M  V30 46 H 2.671156 -4.423079 -0.185041 0
M  V30 47 H 0.961138 -5.957471 0.794805 0
M  V30 END ATOM
M  V30 BEGIN BOND
M  V30 1 1 1 2
M  V30 2 2 2 3
M  V30 3 1 3 4
M  V30 4 2 4 5
M  V30 5 1 5 6
M  V30 6 1 6 7
M  V30 7 1 7 8
M  V30 8 1 8 9
M  V30 9 2 9 10
M  V30 10 1 9 11
M  V30 11 1 11 12
M  V30 12 1 12 13
M  V30 13 2 13 14
M  V30 14 1 13 15
M  V30 15 1 15 16
M  V30 16 2 16 17
M  V30 17 1 17 18
M  V30 18 2 18 19
M  V30 19 1 19 20
M  V30 20 1 20 21
M  V30 21 2 20 22
M  V30 22 2 20 23
M  V30 23 1 19 24
M  V30 24 2 24 25
M  V30 25 1 5 26
M  V30 26 2 26 27
M  V30 27 1 27 2
M  V30 28 1 25 16
M  V30 29 1 1 28
M  V30 30 1 1 29
M  V30 31 1 1 30
M  V30 32 1 3 31
M  V30 33 1 4 32
M  V30 34 1 7 33
M  V30 35 1 7 34
M  V30 36 1 8 35
M  V30 37 1 8 36
M  V30 38 1 12 37
M  V30 39 1 12 38
M  V30 40 1 15 39
M  V30 41 1 17 40
M  V30 42 1 18 41
M  V30 43 1 21 42
M  V30 44 1 21 43
M  V30 45 1 24 44
M  V30 46 1 25 45
M  V30 47 1 26 46
M  V30 48 1 27 47
M  V30 END BOND
M  V30 END CTAB
M  END
>  <Dataset>  (37) 
ChEMBL_Kinases

>  <Ligand_Instance>  (37) 
nan

>  <PDB_ID>  (37) 
nan

>  <Standardized_SMILES>  (37) 
Cc1ccc(SCCC(=O)OCC(=O)Nc2ccc(S(N)(=O)=O)cc2)cc1

>  <Name>  (37) 
nan

>  <Pocket>  (37) 
nan

>  <ATP_Site>  (37) 
nan

>  <Peripheral>  (37) 
nan

>  <Num_H_Atoms_ProtBoundConf>  (37) 
nan

>  <Num_Resolved_Atoms>  (37) 
nan

>  <Num_Not_Resolved_Atoms>  (37) 
nan

$$$$
CHEMBL1577031
     RDKit          3D

  0  0  0  0  0  0  0  0  0  0999 V3000
M  V30 BEGIN CTAB
M  V30 COUNTS 36 38 0 0 0
M  V30 BEGIN ATOM
M  V30 1 C -0.940992 -3.228439 4.442970 0
M  V30 2 C 0.039724 -3.230704 3.235592 0
M  V30 3 C 0.892535 -4.045756 2.396966 0
M  V30 4 C 1.409835 -3.087394 1.483527 0
M  V30 5 C 1.235608 -1.676927 1.310454 0
M  V30 6 C 2.190627 -1.749816 0.131273 0
M  V30 7 O 2.909440 -2.357772 -0.729082 0
M  V30 8 C 2.342350 -0.292298 -0.122414 0
M  V30 9 C 1.452476 0.229744 -1.228025 0
M  V30 10 O 1.707325 -0.352700 -2.432840 0
M  V30 11 C 1.648561 1.690376 -1.264177 0
M  V30 12 O 2.703173 2.260453 -1.678269 0
M  V30 13 N 0.474829 2.281976 -0.766310 0
M  V30 14 C 0.238604 3.690749 -0.515067 0
M  V30 15 C -0.554443 1.313052 -0.501444 0
M  V30 16 C -1.851990 1.394342 -0.061462 0
M  V30 17 C -2.610250 0.242030 0.035867 0
M  V30 18 C -2.015698 -0.929524 -0.316617 0
M  V30 19 C -0.700361 -1.091888 -0.774024 0
M  V30 20 C 0.011992 0.107182 -0.846931 0
M  V30 21 S 0.131053 -1.593224 2.674328 0
M  V30 22 H -1.926257 -2.886103 4.106486 0
M  V30 23 H -0.973661 -4.264623 4.846644 0
M  V30 24 H -0.565004 -2.589494 5.229115 0
M  V30 25 H 0.646167 -4.929425 2.950993 0
M  V30 26 H 1.952703 -4.031689 1.083977 0
M  V30 27 H 2.245179 0.372658 0.746267 0
M  V30 28 H 3.392646 -0.078030 -0.486550 0
M  V30 29 H 1.072368 -0.146306 -3.137196 0
M  V30 30 H -0.357950 4.138132 -1.312198 0
M  V30 31 H -0.326955 3.803509 0.447487 0
M  V30 32 H 1.214636 4.254782 -0.461213 0
M  V30 33 H -2.307929 2.316464 0.205210 0
M  V30 34 H -3.639650 0.248530 0.379103 0
M  V30 35 H -2.607439 -1.827671 -0.238686 0
M  V30 36 H -0.319585 -2.081067 -1.038768 0
M  V30 END ATOM
M  V30 BEGIN BOND
M  V30 1 1 1 2
M  V30 2 2 2 3
M  V30 3 1 3 4
M  V30 4 2 4 5
M  V30 5 1 5 6
M  V30 6 2 6 7
M  V30 7 1 6 8
M  V30 8 1 8 9
M  V30 9 1 9 10
M  V30 10 1 9 11
M  V30 11 2 11 12
M  V30 12 1 11 13
M  V30 13 1 13 14
M  V30 14 1 13 15
M  V30 15 2 15 16
M  V30 16 1 16 17
M  V30 17 2 17 18
M  V30 18 1 18 19
M  V30 19 2 19 20
M  V30 20 1 5 21
M  V30 21 1 21 2
M  V30 22 1 20 9
M  V30 23 1 20 15
M  V30 24 1 1 22
M  V30 25 1 1 23
M  V30 26 1 1 24
M  V30 27 1 3 25
M  V30 28 1 4 26
M  V30 29 1 8 27
M  V30 30 1 8 28
M  V30 31 1 10 29
M  V30 32 1 14 30
M  V30 33 1 14 31
M  V30 34 1 14 32
M  V30 35 1 16 33
M  V30 36 1 17 34
M  V30 37 1 18 35
M  V30 38 1 19 36
M  V30 END BOND
M  V30 END CTAB
M  END
>  <Dataset>  (38) 
ChEMBL_Kinases

>  <Ligand_Instance>  (38) 
nan

>  <PDB_ID>  (38) 
nan

>  <Standardized_SMILES>  (38) 
Cc1ccc(C(=O)CC2(O)C(=O)N(C)c3ccccc32)s1

>  <Name>  (38) 
nan

>  <Pocket>  (38) 
nan

>  <ATP_Site>  (38) 
nan

>  <Peripheral>  (38) 
nan

>  <Num_H_Atoms_ProtBoundConf>  (38) 
nan

>  <Num_Resolved_Atoms>  (38) 
nan

>  <Num_Not_Resolved_Atoms>  (38) 
nan

$$$$
CHEMBL1577147
     RDKit          3D

  0  0  0  0  0  0  0  0  0  0999 V3000
M  V30 BEGIN CTAB
M  V30 COUNTS 36 38 0 0 0
M  V30 BEGIN ATOM
M  V30 1 C -0.376609 -3.618472 3.345297 0
M  V30 2 C 0.155886 -3.831315 1.964357 0
M  V30 3 O -0.201298 -2.737079 1.111983 0
M  V30 4 C 0.223237 -1.453249 1.426357 0
M  V30 5 O 0.931394 -1.150529 2.447903 0
M  V30 6 C -0.050232 -0.251834 0.675603 0
M  V30 7 C 0.698389 0.271835 -0.332701 0
M  V30 8 C 1.935640 -0.177437 -0.947211 0
M  V30 9 C 2.633719 -1.308933 -0.600807 0
M  V30 10 C 3.808790 -1.721032 -1.194296 0
M  V30 11 C 4.348726 -0.964018 -2.213101 0
M  V30 12 C 3.697288 0.184489 -2.609429 0
M  V30 13 C 2.526493 0.533391 -1.969429 0
M  V30 14 N 0.043985 1.383824 -0.707578 0
M  V30 15 C -1.066581 1.560782 0.024712 0
M  V30 16 C -2.040005 2.535135 0.010932 0
M  V30 17 C -3.100444 2.468312 0.898843 0
M  V30 18 C -3.207204 1.430020 1.813765 0
M  V30 19 O -4.283983 1.389103 2.693798 0
M  V30 20 C -2.226213 0.457384 1.820217 0
M  V30 21 C -1.164143 0.521948 0.932832 0
M  V30 22 H 0.318076 -2.932101 3.882442 0
M  V30 23 H -1.359867 -3.074601 3.329532 0
M  V30 24 H -0.416664 -4.537113 3.929300 0
M  V30 25 H 1.281634 -3.818165 2.040382 0
M  V30 26 H -0.084840 -4.792217 1.503801 0
M  V30 27 H 2.261017 -1.942672 0.188679 0
M  V30 28 H 4.305440 -2.624565 -0.870126 0
M  V30 29 H 5.261463 -1.218728 -2.725647 0
M  V30 30 H 4.108305 0.776641 -3.397526 0
M  V30 31 H 2.065241 1.456206 -2.336466 0
M  V30 32 H 0.321585 2.061710 -1.468474 0
M  V30 33 H -1.982328 3.362689 -0.696727 0
M  V30 34 H -3.841742 3.262792 0.846351 0
M  V30 35 H -5.040649 0.752185 2.451734 0
M  V30 36 H -2.269840 -0.381256 2.525685 0
M  V30 END ATOM
M  V30 BEGIN BOND
M  V30 1 1 1 2
M  V30 2 1 2 3
M  V30 3 1 3 4
M  V30 4 2 4 5
M  V30 5 1 4 6
M  V30 6 2 6 7
M  V30 7 1 7 8
M  V30 8 2 8 9
M  V30 9 1 9 10
M  V30 10 2 10 11
M  V30 11 1 11 12
M  V30 12 2 12 13
M  V30 13 1 7 14
M  V30 14 1 14 15
M  V30 15 2 15 16
M  V30 16 1 16 17
M  V30 17 2 17 18
M  V30 18 1 18 19
M  V30 19 1 18 20
M  V30 20 2 20 21
M  V30 21 1 21 6
M  V30 22 1 13 8
M  V30 23 1 21 15
M  V30 24 1 1 22
M  V30 25 1 1 23
M  V30 26 1 1 24
M  V30 27 1 2 25
M  V30 28 1 2 26
M  V30 29 1 9 27
M  V30 30 1 10 28
M  V30 31 1 11 29
M  V30 32 1 12 30
M  V30 33 1 13 31
M  V30 34 1 14 32
M  V30 35 1 16 33
M  V30 36 1 17 34
M  V30 37 1 19 35
M  V30 38 1 20 36
M  V30 END BOND
M  V30 END CTAB
M  END
>  <Dataset>  (39) 
ChEMBL_Kinases

>  <Ligand_Instance>  (39) 
nan

>  <PDB_ID>  (39) 
nan

>  <Standardized_SMILES>  (39) 
CCOC(=O)c1c(-c2ccccc2)[nH]c2ccc(O)cc12

>  <Name>  (39) 
nan

>  <Pocket>  (39) 
nan

>  <ATP_Site>  (39) 
nan

>  <Peripheral>  (39) 
nan

>  <Num_H_Atoms_ProtBoundConf>  (39) 
nan

>  <Num_Resolved_Atoms>  (39) 
nan

>  <Num_Not_Resolved_Atoms>  (39) 
nan

$$$$
CHEMBL1577159
     RDKit          3D

  0  0  0  0  0  0  0  0  0  0999 V3000
M  V30 BEGIN CTAB
M  V30 COUNTS 38 39 0 0 0
M  V30 BEGIN ATOM
M  V30 1 C 2.233136 -5.298620 4.362573 0
M  V30 2 C 1.739127 -4.203697 3.488635 0
M  V30 3 C 1.366452 -4.422338 2.183431 0
M  V30 4 C 0.917215 -3.296345 1.478311 0
M  V30 5 C 0.506456 -3.478072 0.047174 0
M  V30 6 C 0.870639 -2.046340 2.111543 0
M  V30 7 N 0.387883 -0.980547 1.263292 0
M  V30 8 C 0.995620 -0.028284 0.320059 0
M  V30 9 O 2.177902 0.078208 0.016890 0
M  V30 10 N -0.274884 0.586220 0.003095 0
M  V30 11 C 0.035123 1.644800 -1.016044 0
M  V30 12 O 1.240884 1.819993 -1.435910 0
M  V30 13 C -0.811970 2.648451 -1.733592 0
M  V30 14 C -2.098705 2.904686 -1.248375 0
M  V30 15 C -2.992476 3.785148 -1.830064 0
M  V30 16 C -2.562514 4.445946 -2.969464 0
M  V30 17 C -1.304888 4.187978 -3.432110 0
M  V30 18 F -0.871762 4.818561 -4.538155 0
M  V30 19 C -0.434057 3.309430 -2.838604 0
M  V30 20 C 1.260321 -1.889227 3.428404 0
M  V30 21 C 1.179673 -0.533339 4.026733 0
M  V30 22 N 1.687035 -2.992790 4.078513 0
M  V30 23 H 2.506413 -6.215128 3.795801 0
M  V30 24 H 1.452218 -5.569934 5.125539 0
M  V30 25 H 3.117792 -4.913522 4.915530 0
M  V30 26 H 1.426793 -5.414386 1.754301 0
M  V30 27 H 0.915720 -2.642973 -0.580454 0
M  V30 28 H 0.986078 -4.417893 -0.325905 0
M  V30 29 H -0.572534 -3.554066 -0.088583 0
M  V30 30 H -0.623899 -1.125736 1.580174 0
M  V30 31 H -1.114180 0.992727 -0.206790 0
M  V30 32 H -2.504468 2.416816 -0.345784 0
M  V30 33 H -3.989152 3.949828 -1.406588 0
M  V30 34 H -3.300455 5.112901 -3.387934 0
M  V30 35 H 0.549395 3.134780 -3.242613 0
M  V30 36 H 0.469138 0.091834 3.480291 0
M  V30 37 H 2.173910 -0.068575 4.191259 0
M  V30 38 H 0.735740 -0.657628 5.057601 0
M  V30 END ATOM
M  V30 BEGIN BOND
M  V30 1 1 1 2
M  V30 2 2 2 3
M  V30 3 1 3 4
M  V30 4 1 4 5
M  V30 5 2 4 6
M  V30 6 1 6 7
M  V30 7 1 7 8
M  V30 8 2 8 9
M  V30 9 1 8 10
M  V30 10 1 10 11
M  V30 11 2 11 12
M  V30 12 1 11 13
M  V30 13 2 13 14
M  V30 14 1 14 15
M  V30 15 2 15 16
M  V30 16 1 16 17
M  V30 17 1 17 18
M  V30 18 2 17 19
M  V30 19 1 6 20
M  V30 20 1 20 21
M  V30 21 2 20 22
M  V30 22 1 22 2
M  V30 23 1 19 13
M  V30 24 1 1 23
M  V30 25 1 1 24
M  V30 26 1 1 25
M  V30 27 1 3 26
M  V30 28 1 5 27
M  V30 29 1 5 28
M  V30 30 1 5 29
M  V30 31 1 7 30
M  V30 32 1 10 31
M  V30 33 1 14 32
M  V30 34 1 15 33
M  V30 35 1 16 34
M  V30 36 1 19 35
M  V30 37 1 21 36
M  V30 38 1 21 37
M  V30 39 1 21 38
M  V30 END BOND
M  V30 END CTAB
M  END
>  <Dataset>  (40) 
ChEMBL_Kinases

>  <Ligand_Instance>  (40) 
nan

>  <PDB_ID>  (40) 
nan

>  <Standardized_SMILES>  (40) 
Cc1cc(C)c(NC(=O)NC(=O)c2cccc(F)c2)c(C)n1

>  <Name>  (40) 
nan

>  <Pocket>  (40) 
nan

>  <ATP_Site>  (40) 
nan

>  <Peripheral>  (40) 
nan

>  <Num_H_Atoms_ProtBoundConf>  (40) 
nan

>  <Num_Resolved_Atoms>  (40) 
nan

>  <Num_Not_Resolved_Atoms>  (40) 
nan

$$$$
CHEMBL1578193
     RDKit          3D

  0  0  0  0  0  0  0  0  0  0999 V3000
M  V30 BEGIN CTAB
M  V30 COUNTS 39 41 0 0 0
M  V30 BEGIN ATOM
M  V30 1 C 0.783593 -6.190091 -3.680641 0
M  V30 2 O 1.227178 -6.416594 -2.396436 0
M  V30 3 C 0.868009 -5.427884 -1.517622 0
M  V30 4 C 1.418618 -4.049732 -1.905691 0
M  V30 5 N 0.994579 -3.051926 -0.924344 0
M  V30 6 C 1.410654 -1.715995 -1.119924 0
M  V30 7 O 2.120657 -1.488750 -2.133976 0
M  V30 8 C 1.033508 -0.652520 -0.188763 0
M  V30 9 C 0.259849 -0.818713 0.943260 0
M  V30 10 C -0.047823 0.246180 1.768253 0
M  V30 11 C 0.413882 1.521740 1.482532 0
M  V30 12 C 1.195290 1.720820 0.349517 0
M  V30 13 C 1.482064 0.630350 -0.451885 0
M  V30 14 N 1.490028 3.034593 0.332646 0
M  V30 15 C 0.916596 3.623166 1.407562 0
M  V30 16 N 0.245591 2.705918 2.133178 0
M  V30 17 C -0.512228 2.828444 3.336526 0
M  V30 18 C -0.405397 2.051967 4.473073 0
M  V30 19 C -1.230292 2.320608 5.550167 0
M  V30 20 C -2.136011 3.353165 5.463790 0
M  V30 21 F -2.934371 3.589760 6.546477 0
M  V30 22 C -2.262172 4.143318 4.339786 0
M  V30 23 F -3.178382 5.154446 4.309874 0
M  V30 24 C -1.429574 3.872854 3.251456 0
M  V30 25 H -0.334703 -6.112617 -3.765939 0
M  V30 26 H 1.071188 -7.078926 -4.304931 0
M  V30 27 H 1.312228 -5.335922 -4.118298 0
M  V30 28 H 1.311869 -5.673233 -0.520365 0
M  V30 29 H -0.220777 -5.356424 -1.333004 0
M  V30 30 H 2.496938 -4.095434 -2.047185 0
M  V30 31 H 0.902028 -3.785024 -2.857967 0
M  V30 32 H 0.404612 -3.335853 -0.113265 0
M  V30 33 H -0.093800 -1.817789 1.154803 0
M  V30 34 H -0.663144 0.019237 2.637199 0
M  V30 35 H 2.095362 0.799484 -1.336871 0
M  V30 36 H 0.932646 4.664148 1.727919 0
M  V30 37 H 0.347365 1.264907 4.422506 0
M  V30 38 H -1.119587 1.693627 6.422305 0
M  V30 39 H -1.579106 4.523889 2.410392 0
M  V30 END ATOM
M  V30 BEGIN BOND
M  V30 1 1 1 2
M  V30 2 1 2 3
M  V30 3 1 3 4
M  V30 4 1 4 5
M  V30 5 1 5 6
M  V30 6 2 6 7
M  V30 7 1 6 8
M  V30 8 2 8 9
M  V30 9 1 9 10
M  V30 10 2 10 11
M  V30 11 1 11 12
M  V30 12 2 12 13
M  V30 13 1 12 14
M  V30 14 2 14 15
M  V30 15 1 15 16
M  V30 16 1 16 17
M  V30 17 2 17 18
M  V30 18 1 18 19
M  V30 19 2 19 20
M  V30 20 1 20 21
M  V30 21 1 20 22
M  V30 22 1 22 23
M  V30 23 2 22 24
M  V30 24 1 13 8
M  V30 25 1 24 17
M  V30 26 1 16 11
M  V30 27 1 1 25
M  V30 28 1 1 26
M  V30 29 1 1 27
M  V30 30 1 3 28
M  V30 31 1 3 29
M  V30 32 1 4 30
M  V30 33 1 4 31
M  V30 34 1 5 32
M  V30 35 1 9 33
M  V30 36 1 10 34
M  V30 37 1 13 35
M  V30 38 1 15 36
M  V30 39 1 18 37
M  V30 40 1 19 38
M  V30 41 1 24 39
M  V30 END BOND
M  V30 END CTAB
M  END
>  <Dataset>  (41) 
ChEMBL_Kinases

>  <Ligand_Instance>  (41) 
nan

>  <PDB_ID>  (41) 
nan

>  <Standardized_SMILES>  (41) 
COCCNC(=O)c1ccc2c(c1)ncn2-c1ccc(F)c(F)c1

>  <Name>  (41) 
nan

>  <Pocket>  (41) 
nan

>  <ATP_Site>  (41) 
nan

>  <Peripheral>  (41) 
nan

>  <Num_H_Atoms_ProtBoundConf>  (41) 
nan

>  <Num_Resolved_Atoms>  (41) 
nan

>  <Num_Not_Resolved_Atoms>  (41) 
nan

$$$$
CHEMBL1577450
     RDKit          3D

  0  0  0  0  0  0  0  0  0  0999 V3000
M  V30 BEGIN CTAB
M  V30 COUNTS 37 40 0 0 0
M  V30 BEGIN ATOM
M  V30 1 N 1.969435 1.200519 5.256710 0
M  V30 2 C 1.834186 1.022666 4.112888 0
M  V30 3 C 1.667099 0.793592 2.700874 0
M  V30 4 N 2.626227 0.584365 1.788425 0
M  V30 5 C 2.090995 0.409006 0.567107 0
M  V30 6 C 2.841657 0.159079 -0.658509 0
M  V30 7 C 2.197084 -0.007406 -1.866008 0
M  V30 8 C 2.942602 -0.244024 -3.016115 0
M  V30 9 C 4.321582 -0.314023 -2.962058 0
M  V30 10 Cl 5.351114 -0.606364 -4.350048 0
M  V30 11 C 4.978127 -0.148251 -1.755428 0
M  V30 12 C 4.203061 0.084573 -0.637729 0
M  V30 13 O 0.792601 0.510121 0.723895 0
M  V30 14 C 0.471800 0.739899 1.975403 0
M  V30 15 N -0.834046 0.906011 2.515117 0
M  V30 16 C -2.015046 0.832639 1.692479 0
M  V30 17 C -2.164364 -0.476490 1.019182 0
M  V30 18 C -1.897794 -0.694291 -0.322293 0
M  V30 19 C -2.063209 -1.948614 -0.876788 0
M  V30 20 C -2.492076 -3.030686 -0.148124 0
M  V30 21 C -2.759991 -2.830650 1.181754 0
M  V30 22 C -2.591580 -1.564335 1.735843 0
M  V30 23 O -2.933266 -1.667115 3.075217 0
M  V30 24 C -2.896982 -3.033998 3.459817 0
M  V30 25 O -3.204409 -3.667239 2.221870 0
M  V30 26 H 1.132309 0.038632 -1.953991 0
M  V30 27 H 2.531582 -0.387758 -4.006930 0
M  V30 28 H 6.063694 -0.185640 -1.609365 0
M  V30 29 H 4.688854 0.217934 0.318921 0
M  V30 30 H -0.947571 1.086199 3.535347 0
M  V30 31 H -1.865616 1.606967 0.885014 0
M  V30 32 H -2.910046 1.151687 2.227155 0
M  V30 33 H -1.556063 0.170112 -0.899261 0
M  V30 34 H -1.841348 -2.067307 -1.930005 0
M  V30 35 H -2.629216 -4.021552 -0.557201 0
M  V30 36 H -1.874017 -3.303214 3.761209 0
M  V30 37 H -3.629719 -3.271469 4.238597 0
M  V30 END ATOM
M  V30 BEGIN BOND
M  V30 1 3 1 2
M  V30 2 1 2 3
M  V30 3 1 3 4
M  V30 4 2 4 5
M  V30 5 1 5 6
M  V30 6 2 6 7
M  V30 7 1 7 8
M  V30 8 2 8 9
M  V30 9 1 9 10
M  V30 10 1 9 11
M  V30 11 2 11 12
M  V30 12 1 5 13
M  V30 13 1 13 14
M  V30 14 1 14 15
M  V30 15 1 15 16
M  V30 16 1 16 17
M  V30 17 2 17 18
M  V30 18 1 18 19
M  V30 19 2 19 20
M  V30 20 1 20 21
M  V30 21 2 21 22
M  V30 22 1 22 23
M  V30 23 1 23 24
M  V30 24 1 24 25
M  V30 25 2 14 3
M  V30 26 1 22 17
M  V30 27 1 12 6
M  V30 28 1 25 21
M  V30 29 1 7 26
M  V30 30 1 8 27
M  V30 31 1 11 28
M  V30 32 1 12 29
M  V30 33 1 15 30
M  V30 34 1 16 31
M  V30 35 1 16 32
M  V30 36 1 18 33
M  V30 37 1 19 34
M  V30 38 1 20 35
M  V30 39 1 24 36
M  V30 40 1 24 37
M  V30 END BOND
M  V30 END CTAB
M  END
>  <Dataset>  (42) 
ChEMBL_Kinases

>  <Ligand_Instance>  (42) 
nan

>  <PDB_ID>  (42) 
nan

>  <Standardized_SMILES>  (42) 
N#Cc1nc(-c2ccc(Cl)cc2)oc1NCc1cccc2c1OCO2

>  <Name>  (42) 
nan

>  <Pocket>  (42) 
nan

>  <ATP_Site>  (42) 
nan

>  <Peripheral>  (42) 
nan

>  <Num_H_Atoms_ProtBoundConf>  (42) 
nan

>  <Num_Resolved_Atoms>  (42) 
nan

>  <Num_Not_Resolved_Atoms>  (42) 
nan

$$$$
CHEMBL1577496
     RDKit          3D

  0  0  0  0  0  0  0  0  0  0999 V3000
M  V30 BEGIN CTAB
M  V30 COUNTS 45 48 0 0 0
M  V30 BEGIN ATOM
M  V30 1 N 1.003939 -4.649610 3.487226 0
M  V30 2 C 0.724736 -3.781872 2.777868 0
M  V30 3 C 0.362161 -2.707098 1.897346 0
M  V30 4 C 0.806750 -1.514018 2.186094 0
M  V30 5 S 1.843454 -1.170903 3.627679 0
M  V30 6 C 2.752534 0.331210 3.194964 0
M  V30 7 N 2.328761 0.977192 2.024124 0
M  V30 8 C 3.281350 1.173732 0.984701 0
M  V30 9 C 2.672491 1.865923 -0.171974 0
M  V30 10 C 2.046504 1.279623 -1.278885 0
M  V30 11 C 1.528817 2.081321 -2.275208 0
M  V30 12 C 1.600452 3.455360 -2.230750 0
M  V30 13 C 2.205147 4.083125 -1.165375 0
M  V30 14 C 2.716967 3.265190 -0.178729 0
M  V30 15 C 0.964564 0.931925 1.652104 0
M  V30 16 N 0.488439 -0.400842 1.359987 0
M  V30 17 C -0.336398 -0.645415 0.204448 0
M  V30 18 O -1.050980 0.284132 -0.243045 0
M  V30 19 C -0.303572 -1.994184 -0.408437 0
M  V30 20 C -0.476740 -2.991173 0.732655 0
M  V30 21 C -1.939970 -3.006356 1.020794 0
M  V30 22 C -2.528141 -2.156372 1.934483 0
M  V30 23 C -3.865369 -2.135422 2.230203 0
M  V30 24 C -4.681509 -3.041293 1.554453 0
M  V30 25 C -4.166050 -3.933959 0.615988 0
M  V30 26 C -2.795955 -3.894220 0.370061 0
M  V30 27 F -2.256333 -4.744507 -0.533897 0
M  V30 28 H 3.829603 0.025502 3.044752 0
M  V30 29 H 2.764007 0.994404 4.087196 0
M  V30 30 H 4.128362 1.789551 1.348869 0
M  V30 31 H 3.741802 0.233177 0.620018 0
M  V30 32 H 2.023663 0.198698 -1.252842 0
M  V30 33 H 1.058498 1.529949 -3.099917 0
M  V30 34 H 1.176986 4.036873 -3.041085 0
M  V30 35 H 2.289385 5.151534 -1.078688 0
M  V30 36 H 3.198099 3.778848 0.668166 0
M  V30 37 H 0.353554 1.266071 2.541941 0
M  V30 38 H 0.788381 1.603323 0.814175 0
M  V30 39 H -1.126969 -2.153767 -1.110245 0
M  V30 40 H 0.699577 -2.225360 -0.855563 0
M  V30 41 H -0.246194 -4.008535 0.348413 0
M  V30 42 H -1.908903 -1.441583 2.472787 0
M  V30 43 H -4.300299 -1.452414 2.956660 0
M  V30 44 H -5.752191 -3.029210 1.786866 0
M  V30 45 H -4.814575 -4.631552 0.099767 0
M  V30 END ATOM
M  V30 BEGIN BOND
M  V30 1 3 1 2
M  V30 2 1 2 3
M  V30 3 2 3 4
M  V30 4 1 4 5
M  V30 5 1 5 6
M  V30 6 1 6 7
M  V30 7 1 7 8
M  V30 8 1 8 9
M  V30 9 2 9 10
M  V30 10 1 10 11
M  V30 11 2 11 12
M  V30 12 1 12 13
M  V30 13 2 13 14
M  V30 14 1 7 15
M  V30 15 1 15 16
M  V30 16 1 16 17
M  V30 17 2 17 18
M  V30 18 1 17 19
M  V30 19 1 19 20
M  V30 20 1 20 21
M  V30 21 2 21 22
M  V30 22 1 22 23
M  V30 23 2 23 24
M  V30 24 1 24 25
M  V30 25 2 25 26
M  V30 26 1 26 27
M  V30 27 1 20 3
M  V30 28 1 26 21
M  V30 29 1 16 4
M  V30 30 1 14 9
M  V30 31 1 6 28
M  V30 32 1 6 29
M  V30 33 1 8 30
M  V30 34 1 8 31
M  V30 35 1 10 32
M  V30 36 1 11 33
M  V30 37 1 12 34
M  V30 38 1 13 35
M  V30 39 1 14 36
M  V30 40 1 15 37
M  V30 41 1 15 38
M  V30 42 1 19 39
M  V30 43 1 19 40
M  V30 44 1 20 41
M  V30 45 1 22 42
M  V30 46 1 23 43
M  V30 47 1 24 44
M  V30 48 1 25 45
M  V30 END BOND
M  V30 END CTAB
M  END
>  <Dataset>  (43) 
ChEMBL_Kinases

>  <Ligand_Instance>  (43) 
nan

>  <PDB_ID>  (43) 
nan

>  <Standardized_SMILES>  (43) 
N#CC1=C2SCN(Cc3ccccc3)CN2C(=O)CC1c1ccccc1F

>  <Name>  (43) 
nan

>  <Pocket>  (43) 
nan

>  <ATP_Site>  (43) 
nan

>  <Peripheral>  (43) 
nan

>  <Num_H_Atoms_ProtBoundConf>  (43) 
nan

>  <Num_Resolved_Atoms>  (43) 
nan

>  <Num_Not_Resolved_Atoms>  (43) 
nan

$$$$
CHEMBL1577603
     RDKit          3D

  0  0  0  0  0  0  0  0  0  0999 V3000
M  V30 BEGIN CTAB
M  V30 COUNTS 36 38 0 0 0
M  V30 BEGIN ATOM
M  V30 1 C -2.358176 -3.280461 1.441153 0
M  V30 2 C -0.889682 -3.343926 1.692428 0
M  V30 3 C -0.248356 -4.553863 1.835012 0
M  V30 4 C 1.122492 -4.532799 2.067349 0
M  V30 5 C 1.886222 -3.390951 2.165390 0
M  V30 6 C 1.213353 -2.197680 2.017910 0
M  V30 7 C -0.161654 -2.170809 1.783535 0
M  V30 8 N -0.879190 -0.928635 1.627117 0
M  V30 9 C -0.862302 -0.601008 0.241732 0
M  V30 10 O -0.376641 -1.144693 -0.808733 0
M  V30 11 C -1.491174 0.610819 -0.374677 0
M  V30 12 C -0.932319 1.881776 0.225925 0
M  V30 13 C 0.470926 2.072692 -0.203759 0
M  V30 14 C 1.304824 2.844755 0.585405 0
M  V30 15 C 2.613095 3.047169 0.223550 0
M  V30 16 C 3.170835 2.504884 -0.927586 0
M  V30 17 C 2.293129 1.748006 -1.669799 0
M  V30 18 C 0.984935 1.513443 -1.358973 0
M  V30 19 C 0.094257 0.703414 -2.178755 0
M  V30 20 O 0.645830 0.229443 -3.218328 0
M  V30 21 O -1.232548 0.532731 -1.756944 0
M  V30 22 H -2.845046 -3.308707 2.451258 0
M  V30 23 H -2.631124 -2.314443 0.977213 0
M  V30 24 H -2.735798 -4.163965 0.898715 0
M  V30 25 H -0.778569 -5.502135 1.771271 0
M  V30 26 H 1.612057 -5.497990 2.177352 0
M  V30 27 H 2.947830 -3.434076 2.346961 0
M  V30 28 H 1.743992 -1.236680 2.081375 0
M  V30 29 H -1.379282 -0.243002 2.219123 0
M  V30 30 H -2.591973 0.569404 -0.233855 0
M  V30 31 H -1.013440 1.837877 1.313433 0
M  V30 32 H -1.543622 2.714536 -0.162427 0
M  V30 33 H 0.925436 3.292759 1.493927 0
M  V30 34 H 3.242308 3.659023 0.865473 0
M  V30 35 H 4.190861 2.652348 -1.226129 0
M  V30 36 H 2.702181 1.303873 -2.587661 0
M  V30 END ATOM
M  V30 BEGIN BOND
M  V30 1 1 1 2
M  V30 2 2 2 3
M  V30 3 1 3 4
M  V30 4 2 4 5
M  V30 5 1 5 6
M  V30 6 2 6 7
M  V30 7 1 7 8
M  V30 8 1 8 9
M  V30 9 2 9 10
M  V30 10 1 9 11
M  V30 11 1 11 12
M  V30 12 1 12 13
M  V30 13 2 13 14
M  V30 14 1 14 15
M  V30 15 2 15 16
M  V30 16 1 16 17
M  V30 17 2 17 18
M  V30 18 1 18 19
M  V30 19 2 19 20
M  V30 20 1 19 21
M  V30 21 1 7 2
M  V30 22 1 21 11
M  V30 23 1 18 13
M  V30 24 1 1 22
M  V30 25 1 1 23
M  V30 26 1 1 24
M  V30 27 1 3 25
M  V30 28 1 4 26
M  V30 29 1 5 27
M  V30 30 1 6 28
M  V30 31 1 8 29
M  V30 32 1 11 30
M  V30 33 1 12 31
M  V30 34 1 12 32
M  V30 35 1 14 33
M  V30 36 1 15 34
M  V30 37 1 16 35
M  V30 38 1 17 36
M  V30 END BOND
M  V30 END CTAB
M  END
>  <Dataset>  (44) 
ChEMBL_Kinases

>  <Ligand_Instance>  (44) 
nan

>  <PDB_ID>  (44) 
nan

>  <Standardized_SMILES>  (44) 
Cc1ccccc1NC(=O)C1Cc2ccccc2C(=O)O1

>  <Name>  (44) 
nan

>  <Pocket>  (44) 
nan

>  <ATP_Site>  (44) 
nan

>  <Peripheral>  (44) 
nan

>  <Num_H_Atoms_ProtBoundConf>  (44) 
nan

>  <Num_Resolved_Atoms>  (44) 
nan

>  <Num_Not_Resolved_Atoms>  (44) 
nan

$$$$
CHEMBL1577606
     RDKit          3D

  0  0  0  0  0  0  0  0  0  0999 V3000
M  V30 BEGIN CTAB
M  V30 COUNTS 62 65 0 0 0
M  V30 BEGIN ATOM
M  V30 1 C 3.121888 -2.457662 4.846943 0
M  V30 2 C 2.888216 -2.049863 3.427355 0
M  V30 3 O 3.262661 -0.716386 3.167464 0
M  V30 4 C 2.719757 0.366782 3.803018 0
M  V30 5 O 1.833088 0.242801 4.679128 0
M  V30 6 N 3.191350 1.657987 3.441779 0
M  V30 7 C 2.731687 2.910975 4.007787 0
M  V30 8 C 2.061077 3.659476 2.874814 0
M  V30 9 N 2.867245 3.798132 1.702664 0
M  V30 10 S 1.821003 4.250117 0.391217 0
M  V30 11 O 2.705763 4.495748 -0.792918 0
M  V30 12 O 1.114325 5.551954 0.686107 0
M  V30 13 C 0.611570 3.038911 0.063885 0
M  V30 14 C -0.596627 3.132488 0.722947 0
M  V30 15 C -1.631707 2.237837 0.551013 0
M  V30 16 C -1.495403 1.176282 -0.317472 0
M  V30 17 C -2.461150 0.131333 -0.637234 0
M  V30 18 O -2.260481 -0.813923 -1.445274 0
M  V30 19 N -3.711325 0.205260 0.022113 0
M  V30 20 N -4.657368 -0.783184 -0.264420 0
M  V30 21 C -4.365517 -1.870780 -1.219953 0
M  V30 22 N -3.905660 -2.891572 -0.993689 0
M  V30 23 C -3.607944 -3.916422 -1.756563 0
M  V30 24 C -3.044525 -5.149002 -1.432351 0
M  V30 25 C -2.644170 -5.564259 -0.050337 0
M  V30 26 C -2.822394 -6.076428 -2.407251 0
M  V30 27 C -3.116080 -5.902750 -3.747012 0
M  V30 28 C -2.905273 -6.858543 -4.861275 0
M  V30 29 C -3.675921 -4.687131 -4.091821 0
M  V30 30 C -3.896560 -3.742250 -3.064310 0
M  V30 31 S -4.591008 -2.085939 -3.119215 0
M  V30 32 C -0.273625 1.072854 -0.990612 0
M  V30 33 C 0.755014 1.973792 -0.810770 0
M  V30 34 C 3.603835 2.637848 1.312543 0
M  V30 35 C 4.207505 1.862122 2.443541 0
M  V30 36 H 2.128548 -2.405832 5.380290 0
M  V30 37 H 3.877764 -1.872102 5.384811 0
M  V30 38 H 3.427862 -3.540137 4.923821 0
M  V30 39 H 1.827422 -2.265490 3.139545 0
M  V30 40 H 3.499747 -2.721873 2.780546 0
M  V30 41 H 3.599422 3.472384 4.377043 0
M  V30 42 H 1.940123 2.763962 4.777458 0
M  V30 43 H 1.070569 3.202578 2.662054 0
M  V30 44 H 1.858239 4.687789 3.268988 0
M  V30 45 H -0.871253 3.914607 1.447329 0
M  V30 46 H -2.582038 2.280819 1.046412 0
M  V30 47 H -4.045369 0.905904 0.710420 0
M  V30 48 H -5.616531 -0.867246 0.133457 0
M  V30 49 H -1.627023 -6.005388 -0.094388 0
M  V30 50 H -2.674605 -4.636085 0.557091 0
M  V30 51 H -3.394823 -6.251671 0.382830 0
M  V30 52 H -2.382985 -7.052675 -2.191517 0
M  V30 53 H -2.473211 -7.789108 -4.453502 0
M  V30 54 H -3.848343 -7.125071 -5.376409 0
M  V30 55 H -2.176261 -6.425825 -5.577729 0
M  V30 56 H -3.983566 -4.333573 -5.066041 0
M  V30 57 H -0.047235 0.288086 -1.693867 0
M  V30 58 H 1.702125 1.900084 -1.327636 0
M  V30 59 H 4.454767 2.982674 0.681137 0
M  V30 60 H 3.032786 1.919904 0.689152 0
M  V30 61 H 5.063076 2.396587 2.942836 0
M  V30 62 H 4.606365 0.917855 2.037738 0
M  V30 END ATOM
M  V30 BEGIN BOND
M  V30 1 1 1 2
M  V30 2 1 2 3
M  V30 3 1 3 4
M  V30 4 2 4 5
M  V30 5 1 4 6
M  V30 6 1 6 7
M  V30 7 1 7 8
M  V30 8 1 8 9
M  V30 9 1 9 10
M  V30 10 2 10 11
M  V30 11 2 10 12
M  V30 12 1 10 13
M  V30 13 2 13 14
M  V30 14 1 14 15
M  V30 15 2 15 16
M  V30 16 1 16 17
M  V30 17 2 17 18
M  V30 18 1 17 19
M  V30 19 1 19 20
M  V30 20 1 20 21
M  V30 21 2 21 22
M  V30 22 1 22 23
M  V30 23 2 23 24
M  V30 24 1 24 25
M  V30 25 1 24 26
M  V30 26 2 26 27
M  V30 27 1 27 28
M  V30 28 1 27 29
M  V30 29 2 29 30
M  V30 30 1 30 31
M  V30 31 1 16 32
M  V30 32 2 32 33
M  V30 33 1 9 34
M  V30 34 1 34 35
M  V30 35 1 35 6
M  V30 36 1 33 13
M  V30 37 1 31 21
M  V30 38 1 30 23
M  V30 39 1 1 36
M  V30 40 1 1 37
M  V30 41 1 1 38
M  V30 42 1 2 39
M  V30 43 1 2 40
M  V30 44 1 7 41
M  V30 45 1 7 42
M  V30 46 1 8 43
M  V30 47 1 8 44
M  V30 48 1 14 45
M  V30 49 1 15 46
M  V30 50 1 19 47
M  V30 51 1 20 48
M  V30 52 1 25 49
M  V30 53 1 25 50
M  V30 54 1 25 51
M  V30 55 1 26 52
M  V30 56 1 28 53
M  V30 57 1 28 54
M  V30 58 1 28 55
M  V30 59 1 29 56
M  V30 60 1 32 57
M  V30 61 1 33 58
M  V30 62 1 34 59
M  V30 63 1 34 60
M  V30 64 1 35 61
M  V30 65 1 35 62
M  V30 END BOND
M  V30 END CTAB
M  END
>  <Dataset>  (45) 
ChEMBL_Kinases

>  <Ligand_Instance>  (45) 
nan

>  <PDB_ID>  (45) 
nan

>  <Standardized_SMILES>  (45) 
CCOC(=O)N1CCN(S(=O)(=O)c2ccc(C(=O)NNc3nc4c(C)cc(C)cc4s3)cc2)CC1

>  <Name>  (45) 
nan

>  <Pocket>  (45) 
nan

>  <ATP_Site>  (45) 
nan

>  <Peripheral>  (45) 
nan

>  <Num_H_Atoms_ProtBoundConf>  (45) 
nan

>  <Num_Resolved_Atoms>  (45) 
nan

>  <Num_Not_Resolved_Atoms>  (45) 
nan

$$$$
CHEMBL1577637
     RDKit          3D

  0  0  0  0  0  0  0  0  0  0999 V3000
M  V30 BEGIN CTAB
M  V30 COUNTS 30 33 0 0 0
M  V30 BEGIN ATOM
M  V30 1 C 0.586428 -5.325219 0.948454 0
M  V30 2 C 0.958703 -3.901722 1.181793 0
M  V30 3 C 2.107957 -3.613185 1.887143 0
M  V30 4 C 2.453187 -2.295481 2.103504 0
M  V30 5 C 1.609186 -1.335088 1.589761 0
M  V30 6 N 1.783810 0.014886 1.701670 0
M  V30 7 C 0.767123 0.590786 1.080689 0
M  V30 8 C -0.116131 -0.314518 0.536144 0
M  V30 9 C 0.445477 -1.553747 0.875803 0
M  V30 10 C 0.143752 -2.907504 0.685976 0
M  V30 11 C -1.366336 -0.213432 -0.228796 0
M  V30 12 C -1.744709 1.217483 -0.460220 0
M  V30 13 C -0.770082 2.151591 0.142730 0
M  V30 14 C -0.935656 3.537896 0.047352 0
M  V30 15 N 0.087074 4.137341 0.677576 0
M  V30 16 N 0.888786 3.192855 1.165292 0
M  V30 17 C 0.396559 1.981363 0.857886 0
M  V30 18 H 1.232559 -5.819918 0.197913 0
M  V30 19 H 0.615150 -5.850067 1.933970 0
M  V30 20 H -0.471609 -5.387127 0.593578 0
M  V30 21 H 2.774816 -4.361698 2.293090 0
M  V30 22 H 3.347087 -2.047646 2.652217 0
M  V30 23 H 2.539515 0.534963 2.166682 0
M  V30 24 H -0.745479 -3.141616 0.140183 0
M  V30 25 H -1.206957 -0.680501 -1.250289 0
M  V30 26 H -2.194289 -0.775362 0.265530 0
M  V30 27 H -2.774002 1.368259 -0.018663 0
M  V30 28 H -1.789123 1.454553 -1.565791 0
M  V30 29 H -1.704144 4.172752 -0.421346 0
M  V30 30 H 0.284224 5.151962 0.803076 0
M  V30 END ATOM
M  V30 BEGIN BOND
M  V30 1 1 1 2
M  V30 2 2 2 3
M  V30 3 1 3 4
M  V30 4 2 4 5
M  V30 5 1 5 6
M  V30 6 1 6 7
M  V30 7 2 7 8
M  V30 8 1 8 9
M  V30 9 2 9 10
M  V30 10 1 8 11
M  V30 11 1 11 12
M  V30 12 1 12 13
M  V30 13 2 13 14
M  V30 14 1 14 15
M  V30 15 1 15 16
M  V30 16 2 16 17
M  V30 17 1 10 2
M  V30 18 1 17 13
M  V30 19 1 9 5
M  V30 20 1 17 7
M  V30 21 1 1 18
M  V30 22 1 1 19
M  V30 23 1 1 20
M  V30 24 1 3 21
M  V30 25 1 4 22
M  V30 26 1 6 23
M  V30 27 1 10 24
M  V30 28 1 11 25
M  V30 29 1 11 26
M  V30 30 1 12 27
M  V30 31 1 12 28
M  V30 32 1 14 29
M  V30 33 1 15 30
M  V30 END BOND
M  V30 END CTAB
M  END
>  <Dataset>  (46) 
ChEMBL_Kinases

>  <Ligand_Instance>  (46) 
nan

>  <PDB_ID>  (46) 
nan

>  <Standardized_SMILES>  (46) 
Cc1ccc2[nH]c3c(c2c1)CCc1c[nH]nc1-3

>  <Name>  (46) 
nan

>  <Pocket>  (46) 
nan

>  <ATP_Site>  (46) 
nan

>  <Peripheral>  (46) 
nan

>  <Num_H_Atoms_ProtBoundConf>  (46) 
nan

>  <Num_Resolved_Atoms>  (46) 
nan

>  <Num_Not_Resolved_Atoms>  (46) 
nan

$$$$
CHEMBL1577722
     RDKit          3D

  0  0  0  0  0  0  0  0  0  0999 V3000
M  V30 BEGIN CTAB
M  V30 COUNTS 31 33 0 0 0
M  V30 BEGIN ATOM
M  V30 1 O -0.788358 -2.107996 1.966291 0
M  V30 2 C 0.234511 -1.438204 2.223010 0
M  V30 3 C 1.446214 -2.299771 2.427030 0
M  V30 4 S 1.986358 -3.185372 0.984180 0
M  V30 5 C 2.608981 -2.143335 -0.297804 0
M  V30 6 N 3.892045 -1.860902 -0.232371 0
M  V30 7 C 4.594371 -1.128855 -1.066248 0
M  V30 8 N 3.955769 -0.598313 -2.113599 0
M  V30 9 C 2.620541 -0.854408 -2.240770 0
M  V30 10 S 1.352719 -0.342530 -3.530384 0
M  V30 11 C -0.058573 -1.234389 -2.738631 0
M  V30 12 C 0.519981 -1.841851 -1.579131 0
M  V30 13 C 1.834369 -1.668959 -1.313016 0
M  V30 14 N 0.313134 0.008392 2.331033 0
M  V30 15 C -1.008858 0.396907 2.085824 0
M  V30 16 C -1.733162 0.468417 3.286475 0
M  V30 17 C -3.089130 0.824455 3.274630 0
M  V30 18 C -3.709127 1.106019 2.051196 0
M  V30 19 C -3.029484 1.048562 0.833620 0
M  V30 20 C -1.715930 0.694430 0.953175 0
M  V30 21 F -0.913247 0.600190 -0.158598 0
M  V30 22 H 1.145872 -3.028265 3.200381 0
M  V30 23 H 2.298962 -1.669353 2.797837 0
M  V30 24 H 5.632942 -0.873432 -1.048556 0
M  V30 25 H -1.012447 -1.259226 -3.091704 0
M  V30 26 H -0.146771 -2.417877 -0.965894 0
M  V30 27 H 1.220140 0.464865 2.544730 0
M  V30 28 H -1.365909 0.274977 4.293935 0
M  V30 29 H -3.687777 0.893840 4.164546 0
M  V30 30 H -4.776587 1.388804 1.995459 0
M  V30 31 H -3.466911 1.258868 -0.121183 0
M  V30 END ATOM
M  V30 BEGIN BOND
M  V30 1 2 1 2
M  V30 2 1 2 3
M  V30 3 1 3 4
M  V30 4 1 4 5
M  V30 5 2 5 6
M  V30 6 1 6 7
M  V30 7 2 7 8
M  V30 8 1 8 9
M  V30 9 1 9 10
M  V30 10 1 10 11
M  V30 11 2 11 12
M  V30 12 1 12 13
M  V30 13 1 2 14
M  V30 14 1 14 15
M  V30 15 2 15 16
M  V30 16 1 16 17
M  V30 17 2 17 18
M  V30 18 1 18 19
M  V30 19 2 19 20
M  V30 20 1 20 21
M  V30 21 1 13 5
M  V30 22 1 20 15
M  V30 23 2 13 9
M  V30 24 1 3 22
M  V30 25 1 3 23
M  V30 26 1 7 24
M  V30 27 1 11 25
M  V30 28 1 12 26
M  V30 29 1 14 27
M  V30 30 1 16 28
M  V30 31 1 17 29
M  V30 32 1 18 30
M  V30 33 1 19 31
M  V30 END BOND
M  V30 END CTAB
M  END
>  <Dataset>  (47) 
ChEMBL_Kinases

>  <Ligand_Instance>  (47) 
nan

>  <PDB_ID>  (47) 
nan

>  <Standardized_SMILES>  (47) 
O=C(CSc1ncnc2sccc12)Nc1ccccc1F

>  <Name>  (47) 
nan

>  <Pocket>  (47) 
nan

>  <ATP_Site>  (47) 
nan

>  <Peripheral>  (47) 
nan

>  <Num_H_Atoms_ProtBoundConf>  (47) 
nan

>  <Num_Resolved_Atoms>  (47) 
nan

>  <Num_Not_Resolved_Atoms>  (47) 
nan

$$$$
CHEMBL1577764
     RDKit          3D

  0  0  0  0  0  0  0  0  0  0999 V3000
M  V30 BEGIN CTAB
M  V30 COUNTS 56 59 0 0 0
M  V30 BEGIN ATOM
M  V30 1 C 1.799369 -5.345533 0.878906 0
M  V30 2 O 1.366263 -4.247111 0.101989 0
M  V30 3 C 1.797914 -2.972403 0.415320 0
M  V30 4 C 2.646715 -2.851800 1.493948 0
M  V30 5 C 3.087074 -1.608172 1.824825 0
M  V30 6 C 2.681405 -0.522084 1.088579 0
M  V30 7 O 3.135400 0.728988 1.433560 0
M  V30 8 C 4.002340 0.877989 2.528218 0
M  V30 9 C 1.843521 -0.527281 0.002970 0
M  V30 10 C 1.346770 0.515690 -0.910369 0
M  V30 11 N 0.396904 1.416354 -0.274274 0
M  V30 12 C 1.036152 2.598537 0.310096 0
M  V30 13 O 2.192889 3.127583 0.118943 0
M  V30 14 C 0.146365 3.247980 1.265972 0
M  V30 15 C 0.342084 4.285545 2.185546 0
M  V30 16 C -0.666505 4.562013 3.119178 0
M  V30 17 C -1.817997 3.770217 3.068439 0
M  V30 18 C -1.985621 2.744255 2.137566 0
M  V30 19 C -0.989865 2.481085 1.219995 0
M  V30 20 C -0.948405 1.600697 0.029481 0
M  V30 21 C -1.951290 0.582977 0.079755 0
M  V30 22 O -3.091707 0.650196 0.688529 0
M  V30 23 N -2.010757 -0.719731 -0.483771 0
M  V30 24 C -3.203925 -1.471518 -0.208684 0
M  V30 25 C -3.214358 -2.833217 -0.830556 0
M  V30 26 C -3.229868 -2.793253 -2.336430 0
M  V30 27 C -2.593139 -4.123399 -2.677494 0
M  V30 28 C -1.915879 -4.562035 -1.428506 0
M  V30 29 O -2.195981 -3.650178 -0.427150 0
M  V30 30 C 1.435871 -1.843988 -0.273035 0
M  V30 31 H 2.898559 -5.470978 0.816998 0
M  V30 32 H 1.246537 -6.265734 0.648734 0
M  V30 33 H 1.596041 -5.127434 1.966221 0
M  V30 34 H 2.999943 -3.657721 2.108219 0
M  V30 35 H 3.747609 -1.440422 2.649287 0
M  V30 36 H 4.325459 1.942895 2.647063 0
M  V30 37 H 3.526496 0.561805 3.492953 0
M  V30 38 H 4.906989 0.226116 2.447417 0
M  V30 39 H 2.250953 1.032761 -1.296644 0
M  V30 40 H 0.911579 0.073821 -1.840275 0
M  V30 41 H 1.248925 4.872565 2.188841 0
M  V30 42 H -0.535752 5.352713 3.831581 0
M  V30 43 H -2.553779 4.053432 3.836389 0
M  V30 44 H -2.935729 2.260141 2.266596 0
M  V30 45 H -1.332933 2.309534 -0.845831 0
M  V30 46 H -1.181342 -0.987561 -1.054907 0
M  V30 47 H -4.110046 -0.931849 -0.555181 0
M  V30 48 H -3.299854 -1.629711 0.896951 0
M  V30 49 H -4.176249 -3.314178 -0.518965 0
M  V30 50 H -2.603332 -1.985679 -2.762355 0
M  V30 51 H -4.273578 -2.757300 -2.701279 0
M  V30 52 H -1.842970 -3.980459 -3.485671 0
M  V30 53 H -3.389951 -4.839628 -2.989023 0
M  V30 54 H -2.231706 -5.556015 -1.098605 0
M  V30 55 H -0.799388 -4.550328 -1.570654 0
M  V30 56 H 0.789283 -2.115052 -1.096563 0
M  V30 END ATOM
M  V30 BEGIN BOND
M  V30 1 1 1 2
M  V30 2 1 2 3
M  V30 3 2 3 4
M  V30 4 1 4 5
M  V30 5 2 5 6
M  V30 6 1 6 7
M  V30 7 1 7 8
M  V30 8 1 6 9
M  V30 9 1 9 10
M  V30 10 1 10 11
M  V30 11 1 11 12
M  V30 12 2 12 13
M  V30 13 1 12 14
M  V30 14 2 14 15
M  V30 15 1 15 16
M  V30 16 2 16 17
M  V30 17 1 17 18
M  V30 18 2 18 19
M  V30 19 1 19 20
M  V30 20 1 20 21
M  V30 21 2 21 22
M  V30 22 1 21 23
M  V30 23 1 23 24
M  V30 24 1 24 25
M  V30 25 1 25 26
M  V30 26 1 26 27
M  V30 27 1 27 28
M  V30 28 1 28 29
M  V30 29 2 9 30
M  V30 30 1 30 3
M  V30 31 1 20 11
M  V30 32 1 29 25
M  V30 33 1 19 14
M  V30 34 1 1 31
M  V30 35 1 1 32
M  V30 36 1 1 33
M  V30 37 1 4 34
M  V30 38 1 5 35
M  V30 39 1 8 36
M  V30 40 1 8 37
M  V30 41 1 8 38
M  V30 42 1 10 39
M  V30 43 1 10 40
M  V30 44 1 15 41
M  V30 45 1 16 42
M  V30 46 1 17 43
M  V30 47 1 18 44
M  V30 48 1 20 45
M  V30 49 1 23 46
M  V30 50 1 24 47
M  V30 51 1 24 48
M  V30 52 1 25 49
M  V30 53 1 26 50
M  V30 54 1 26 51
M  V30 55 1 27 52
M  V30 56 1 27 53
M  V30 57 1 28 54
M  V30 58 1 28 55
M  V30 59 1 30 56
M  V30 END BOND
M  V30 END CTAB
M  END
>  <Dataset>  (48) 
ChEMBL_Kinases

>  <Ligand_Instance>  (48) 
nan

>  <PDB_ID>  (48) 
nan

>  <Standardized_SMILES>  (48) 
COc1ccc(OC)c(CN2C(=O)c3ccccc3C2C(=O)NCC2CCCO2)c1

>  <Name>  (48) 
nan

>  <Pocket>  (48) 
nan

>  <ATP_Site>  (48) 
nan

>  <Peripheral>  (48) 
nan

>  <Num_H_Atoms_ProtBoundConf>  (48) 
nan

>  <Num_Resolved_Atoms>  (48) 
nan

>  <Num_Not_Resolved_Atoms>  (48) 
nan

$$$$
CHEMBL1577994
     RDKit          3D

  0  0  0  0  0  0  0  0  0  0999 V3000
M  V30 BEGIN CTAB
M  V30 COUNTS 41 43 0 0 0
M  V30 BEGIN ATOM
M  V30 1 S -1.706396 -3.695867 -2.970485 0
M  V30 2 C -0.564640 -3.033248 -1.972353 0
M  V30 3 N 0.762635 -3.515924 -2.005030 0
M  V30 4 C 2.031096 -3.264998 -1.374266 0
M  V30 5 C 2.689129 -2.002180 -1.822048 0
M  V30 6 C 2.611049 -0.746380 -1.304555 0
M  V30 7 C 3.334937 0.283329 -1.920684 0
M  V30 8 C 4.119787 0.073445 -3.024961 0
M  V30 9 N 4.188552 -1.164480 -3.524407 0
M  V30 10 C 3.496024 -2.194755 -2.949709 0
M  V30 11 N -1.116585 -1.996605 -1.164710 0
M  V30 12 C -0.781359 -1.046272 -0.162846 0
M  V30 13 C -0.748842 0.337351 -0.155813 0
M  V30 14 C -0.340984 0.981932 0.988701 0
M  V30 15 C 0.037628 0.314733 2.131324 0
M  V30 16 O 0.434537 1.097208 3.239106 0
M  V30 17 C -0.606159 1.358574 4.158519 0
M  V30 18 C -0.746867 0.485953 5.247258 0
M  V30 19 C -1.757377 0.683282 6.195701 0
M  V30 20 C -2.546422 1.776608 5.938045 0
M  V30 21 Cl -3.833912 2.050785 7.118452 0
M  V30 22 C -2.492360 2.686857 4.910035 0
M  V30 23 C -1.474979 2.445268 4.000769 0
M  V30 24 C 0.009536 -1.058557 2.136123 0
M  V30 25 C -0.399695 -1.745541 0.990934 0
M  V30 26 H 0.866630 -4.301841 -2.710498 0
M  V30 27 H 2.709919 -4.112443 -1.542249 0
M  V30 28 H 1.893022 -3.230865 -0.250358 0
M  V30 29 H 2.000025 -0.643065 -0.451548 0
M  V30 30 H 3.213133 1.266178 -1.440549 0
M  V30 31 H 4.667466 0.886414 -3.476792 0
M  V30 32 H 3.666554 -3.137310 -3.483032 0
M  V30 33 H -2.114460 -1.700083 -1.189715 0
M  V30 34 H -1.066085 0.715922 -1.101712 0
M  V30 35 H -0.349139 2.078135 0.894144 0
M  V30 36 H -0.067076 -0.349121 5.357757 0
M  V30 37 H -1.904110 0.040202 7.049007 0
M  V30 38 H -3.182851 3.512492 4.818527 0
M  V30 39 H -1.337787 3.095751 3.152457 0
M  V30 40 H 0.321034 -1.514584 3.062515 0
M  V30 41 H -0.361771 -2.812351 1.164028 0
M  V30 END ATOM
M  V30 BEGIN BOND
M  V30 1 2 1 2
M  V30 2 1 2 3
M  V30 3 1 3 4
M  V30 4 1 4 5
M  V30 5 2 5 6
M  V30 6 1 6 7
M  V30 7 2 7 8
M  V30 8 1 8 9
M  V30 9 2 9 10
M  V30 10 1 2 11
M  V30 11 1 11 12
M  V30 12 2 12 13
M  V30 13 1 13 14
M  V30 14 2 14 15
M  V30 15 1 15 16
M  V30 16 1 16 17
M  V30 17 2 17 18
M  V30 18 1 18 19
M  V30 19 2 19 20
M  V30 20 1 20 21
M  V30 21 1 20 22
M  V30 22 2 22 23
M  V30 23 1 15 24
M  V30 24 2 24 25
M  V30 25 1 10 5
M  V30 26 1 25 12
M  V30 27 1 23 17
M  V30 28 1 3 26
M  V30 29 1 4 27
M  V30 30 1 4 28
M  V30 31 1 6 29
M  V30 32 1 7 30
M  V30 33 1 8 31
M  V30 34 1 10 32
M  V30 35 1 11 33
M  V30 36 1 13 34
M  V30 37 1 14 35
M  V30 38 1 18 36
M  V30 39 1 19 37
M  V30 40 1 22 38
M  V30 41 1 23 39
M  V30 42 1 24 40
M  V30 43 1 25 41
M  V30 END BOND
M  V30 END CTAB
M  END
>  <Dataset>  (49) 
ChEMBL_Kinases

>  <Ligand_Instance>  (49) 
nan

>  <PDB_ID>  (49) 
nan

>  <Standardized_SMILES>  (49) 
S=C(NCc1cccnc1)Nc1ccc(Oc2ccc(Cl)cc2)cc1

>  <Name>  (49) 
nan

>  <Pocket>  (49) 
nan

>  <ATP_Site>  (49) 
nan

>  <Peripheral>  (49) 
nan

>  <Num_H_Atoms_ProtBoundConf>  (49) 
nan

>  <Num_Resolved_Atoms>  (49) 
nan

>  <Num_Not_Resolved_Atoms>  (49) 
nan

$$$$
CHEMBL1577203
     RDKit          3D

  0  0  0  0  0  0  0  0  0  0999 V3000
M  V30 BEGIN CTAB
M  V30 COUNTS 40 44 0 0 0
M  V30 BEGIN ATOM
M  V30 1 N 1.697657 -1.507353 2.411251 0
M  V30 2 C 1.734263 -0.609007 1.505556 0
M  V30 3 O 2.887395 0.006648 1.377207 0
M  V30 4 C 3.090876 0.954663 0.493390 0
M  V30 5 C 4.331561 1.553309 0.420708 0
M  V30 6 C 4.573849 2.552866 -0.499051 0
M  V30 7 C 3.517393 2.897501 -1.313735 0
M  V30 8 C 3.789214 3.906788 -2.230623 0
M  V30 9 C 2.789582 4.316350 -3.087147 0
M  V30 10 C 1.535064 3.726204 -3.029219 0
M  V30 11 C 1.302620 2.720657 -2.098985 0
M  V30 12 C 2.280624 2.294042 -1.234406 0
M  V30 13 C 2.039119 1.300915 -0.320897 0
M  V30 14 C 0.796885 0.712477 -0.259359 0
M  V30 15 C 0.682738 -0.268053 0.696807 0
M  V30 16 C -0.635566 -1.037302 0.910651 0
M  V30 17 N -1.059452 -1.852092 1.561402 0
M  V30 18 C -2.240322 -2.418028 1.626616 0
M  V30 19 C -2.619396 -3.477148 2.547441 0
M  V30 20 C -1.780260 -4.034085 3.484741 0
M  V30 21 C -2.122507 -5.038455 4.365393 0
M  V30 22 C -3.398385 -5.527768 4.310463 0
M  V30 23 C -4.287442 -5.012395 3.394010 0
M  V30 24 C -3.887095 -4.008386 2.539079 0
M  V30 25 C -3.132232 -1.871478 0.676871 0
M  V30 26 S -2.035567 -0.579474 -0.169793 0
M  V30 27 H 0.946152 -2.118796 2.710568 0
M  V30 28 H 5.153450 1.265453 1.074775 0
M  V30 29 H 5.543146 3.016929 -0.552100 0
M  V30 30 H 4.745641 4.409550 -2.329006 0
M  V30 31 H 2.982900 5.102159 -3.809010 0
M  V30 32 H 0.787573 4.090414 -3.729157 0
M  V30 33 H 0.313663 2.345800 -2.146038 0
M  V30 34 H -0.048165 0.954010 -0.876005 0
M  V30 35 H -0.750101 -3.645571 3.535826 0
M  V30 36 H -1.374639 -5.400822 5.063324 0
M  V30 37 H -3.710205 -6.315411 4.982126 0
M  V30 38 H -5.290050 -5.403980 3.358102 0
M  V30 39 H -4.628669 -3.652770 1.850805 0
M  V30 40 H -4.317831 -2.196810 0.493247 0
M  V30 END ATOM
M  V30 BEGIN BOND
M  V30 1 2 1 2 CFG=2
M  V30 2 1 2 3
M  V30 3 1 3 4
M  V30 4 2 4 5
M  V30 5 1 5 6
M  V30 6 2 6 7
M  V30 7 1 7 8
M  V30 8 2 8 9
M  V30 9 1 9 10
M  V30 10 2 10 11
M  V30 11 1 11 12
M  V30 12 2 12 13
M  V30 13 1 13 14
M  V30 14 2 14 15
M  V30 15 1 15 16
M  V30 16 2 16 17
M  V30 17 1 17 18
M  V30 18 1 18 19
M  V30 19 2 19 20
M  V30 20 1 20 21
M  V30 21 2 21 22
M  V30 22 1 22 23
M  V30 23 2 23 24
M  V30 24 2 18 25
M  V30 25 1 25 26
M  V30 26 1 15 2
M  V30 27 1 26 16
M  V30 28 1 13 4
M  V30 29 1 24 19
M  V30 30 1 12 7
M  V30 31 1 1 27
M  V30 32 1 5 28
M  V30 33 1 6 29
M  V30 34 1 8 30
M  V30 35 1 9 31
M  V30 36 1 10 32
M  V30 37 1 11 33
M  V30 38 1 14 34
M  V30 39 1 20 35
M  V30 40 1 21 36
M  V30 41 1 22 37
M  V30 42 1 23 38
M  V30 43 1 24 39
M  V30 44 1 25 40
M  V30 END BOND
M  V30 END CTAB
M  END
>  <Dataset>  (50) 
ChEMBL_Kinases

>  <Ligand_Instance>  (50) 
nan

>  <PDB_ID>  (50) 
nan

>  <Standardized_SMILES>  (50) 
N=c1oc2ccc3ccccc3c2cc1-c1nc(-c2ccccc2)cs1

>  <Name>  (50) 
nan

>  <Pocket>  (50) 
nan

>  <ATP_Site>  (50) 
nan

>  <Peripheral>  (50) 
nan

>  <Num_H_Atoms_ProtBoundConf>  (50) 
nan

>  <Num_Resolved_Atoms>  (50) 
nan

>  <Num_Not_Resolved_Atoms>  (50) 
nan

$$$$
CHEMBL1582035
     RDKit          3D

  0  0  0  0  0  0  0  0  0  0999 V3000
M  V30 BEGIN CTAB
M  V30 COUNTS 36 38 0 0 0
M  V30 BEGIN ATOM
M  V30 1 O 1.486253 -1.372612 3.187325 0
M  V30 2 C 1.394904 -0.802724 2.044320 0
M  V30 3 C 1.741955 -1.469293 0.819336 0
M  V30 4 C 2.203623 -2.677554 0.677089 0
M  V30 5 C 2.465617 -3.061818 -0.718543 0
M  V30 6 C 1.980063 -4.317335 -1.013085 0
M  V30 7 C 2.154272 -4.859592 -2.263312 0
M  V30 8 C 2.832814 -4.097310 -3.206108 0
M  V30 9 C 3.321605 -2.824514 -2.896760 0
M  V30 10 N 3.125705 -2.321129 -1.637483 0
M  V30 11 S 1.360001 -0.269854 -0.492484 0
M  V30 12 C 0.900236 1.042025 0.636757 0
M  V30 13 S 0.575433 2.415734 -0.152094 0
M  V30 14 N 0.947932 0.516167 1.973947 0
M  V30 15 C 0.541124 1.420848 3.031342 0
M  V30 16 C -0.944567 1.268006 3.333025 0
M  V30 17 C -1.797064 1.512139 2.145190 0
M  V30 18 C -2.122284 0.400568 1.376710 0
M  V30 19 C -2.916133 0.473490 0.229090 0
M  V30 20 C -3.386529 1.743822 -0.128523 0
M  V30 21 C -3.048045 2.823031 0.650477 0
M  V30 22 C -2.265796 2.752747 1.780555 0
M  V30 23 H 2.386767 -3.358662 1.491390 0
M  V30 24 H 1.449714 -4.959231 -0.331018 0
M  V30 25 H 1.821670 -5.835173 -2.614578 0
M  V30 26 H 3.056923 -4.390694 -4.245887 0
M  V30 27 H 3.856850 -2.109321 -3.492140 0
M  V30 28 H 1.073798 1.163296 3.986983 0
M  V30 29 H 0.757102 2.461578 2.804570 0
M  V30 30 H -1.182325 0.313491 3.785399 0
M  V30 31 H -1.146060 2.070338 4.101146 0
M  V30 32 H -1.751614 -0.593058 1.662690 0
M  V30 33 H -3.164596 -0.399648 -0.354150 0
M  V30 34 H -4.009741 1.820448 -1.014417 0
M  V30 35 H -3.461498 3.779411 0.293141 0
M  V30 36 H -2.024443 3.615510 2.345085 0
M  V30 END ATOM
M  V30 BEGIN BOND
M  V30 1 2 1 2
M  V30 2 1 2 3
M  V30 3 2 3 4
M  V30 4 1 4 5
M  V30 5 2 5 6
M  V30 6 1 6 7
M  V30 7 2 7 8
M  V30 8 1 8 9
M  V30 9 2 9 10
M  V30 10 1 3 11
M  V30 11 1 11 12
M  V30 12 2 12 13
M  V30 13 1 12 14
M  V30 14 1 14 15
M  V30 15 1 15 16
M  V30 16 1 16 17
M  V30 17 2 17 18
M  V30 18 1 18 19
M  V30 19 2 19 20
M  V30 20 1 20 21
M  V30 21 2 21 22
M  V30 22 1 14 2
M  V30 23 1 22 17
M  V30 24 1 10 5
M  V30 25 1 4 23
M  V30 26 1 6 24
M  V30 27 1 7 25
M  V30 28 1 8 26
M  V30 29 1 9 27
M  V30 30 1 15 28
M  V30 31 1 15 29
M  V30 32 1 16 30
M  V30 33 1 16 31
M  V30 34 1 18 32
M  V30 35 1 19 33
M  V30 36 1 20 34
M  V30 37 1 21 35
M  V30 38 1 22 36
M  V30 END BOND
M  V30 END CTAB
M  END
>  <Dataset>  (51) 
ChEMBL_Kinases

>  <Ligand_Instance>  (51) 
nan

>  <PDB_ID>  (51) 
nan

>  <Standardized_SMILES>  (51) 
O=C1/C(=C/c2ccccn2)SC(=S)N1CCc1ccccc1

>  <Name>  (51) 
nan

>  <Pocket>  (51) 
nan

>  <ATP_Site>  (51) 
nan

>  <Peripheral>  (51) 
nan

>  <Num_H_Atoms_ProtBoundConf>  (51) 
nan

>  <Num_Resolved_Atoms>  (51) 
nan

>  <Num_Not_Resolved_Atoms>  (51) 
nan

$$$$
CHEMBL1581737
     RDKit          3D

  0  0  0  0  0  0  0  0  0  0999 V3000
M  V30 BEGIN CTAB
M  V30 COUNTS 44 46 0 0 0
M  V30 BEGIN ATOM
M  V30 1 C -0.104757 -5.032761 2.077995 0
M  V30 2 C 0.158527 -3.535930 2.187331 0
M  V30 3 C -0.890697 -2.784498 1.439518 0
M  V30 4 C -0.436186 -2.672379 -0.016821 0
M  V30 5 N 0.676994 -1.770522 -0.006421 0
M  V30 6 C 0.670316 -0.411056 -0.492957 0
M  V30 7 O -0.533778 -0.574968 -0.793268 0
M  V30 8 C 1.985860 0.261814 -0.340829 0
M  V30 9 N 1.950848 1.611524 -0.831578 0
M  V30 10 C 3.184656 1.973132 -1.486797 0
M  V30 11 S 1.522016 2.747407 0.391425 0
M  V30 12 O 1.459819 4.108417 -0.281833 0
M  V30 13 O 2.542068 2.839576 1.458063 0
M  V30 14 C -0.066594 2.431231 1.013039 0
M  V30 15 C -0.307160 2.135515 2.322779 0
M  V30 16 C -1.602523 1.906287 2.696864 0
M  V30 17 C -2.615614 1.976908 1.765137 0
M  V30 18 C -2.332532 2.278074 0.453193 0
M  V30 19 N -3.473782 2.314006 -0.379812 0
M  V30 20 S -2.587088 2.737777 -1.940836 0
M  V30 21 N -1.044666 2.798864 -1.350959 0
M  V30 22 C -1.056929 2.501980 0.093539 0
M  V30 23 C 1.793386 -2.467967 0.575218 0
M  V30 24 C 1.554017 -3.191154 1.835092 0
M  V30 25 H -0.393526 -5.498914 3.030922 0
M  V30 26 H 0.857839 -5.520671 1.767999 0
M  V30 27 H -0.920417 -5.242220 1.348862 0
M  V30 28 H -0.023997 -3.288467 3.275222 0
M  V30 29 H -0.946167 -1.753383 1.828309 0
M  V30 30 H -1.820145 -3.360506 1.486337 0
M  V30 31 H -0.211268 -3.674174 -0.439000 0
M  V30 32 H -1.325286 -2.308858 -0.561437 0
M  V30 33 H 2.194335 0.278877 0.749533 0
M  V30 34 H 2.726808 -0.367110 -0.890034 0
M  V30 35 H 3.942932 2.409063 -0.823238 0
M  V30 36 H 3.653108 1.032789 -1.889574 0
M  V30 37 H 2.977163 2.595439 -2.388213 0
M  V30 38 H 0.542093 2.099007 2.992700 0
M  V30 39 H -1.710204 1.676181 3.761885 0
M  V30 40 H -3.559426 1.767166 2.247077 0
M  V30 41 H 2.145978 -3.198671 -0.200652 0
M  V30 42 H 2.646091 -1.737877 0.668782 0
M  V30 43 H 2.140538 -4.157473 1.858731 0
M  V30 44 H 2.035238 -2.602293 2.666294 0
M  V30 END ATOM
M  V30 BEGIN BOND
M  V30 1 1 1 2
M  V30 2 1 2 3
M  V30 3 1 3 4
M  V30 4 1 4 5
M  V30 5 1 5 6
M  V30 6 2 6 7
M  V30 7 1 6 8
M  V30 8 1 8 9
M  V30 9 1 9 10
M  V30 10 1 9 11
M  V30 11 2 11 12
M  V30 12 2 11 13
M  V30 13 1 11 14
M  V30 14 2 14 15
M  V30 15 1 15 16
M  V30 16 2 16 17
M  V30 17 1 17 18
M  V30 18 2 18 19
M  V30 19 1 19 20
M  V30 20 1 20 21
M  V30 21 2 21 22
M  V30 22 1 5 23
M  V30 23 1 23 24
M  V30 24 1 24 2
M  V30 25 1 22 14
M  V30 26 1 22 18
M  V30 27 1 1 25
M  V30 28 1 1 26
M  V30 29 1 1 27
M  V30 30 1 2 28
M  V30 31 1 3 29
M  V30 32 1 3 30
M  V30 33 1 4 31
M  V30 34 1 4 32
M  V30 35 1 8 33
M  V30 36 1 8 34
M  V30 37 1 10 35
M  V30 38 1 10 36
M  V30 39 1 10 37
M  V30 40 1 15 38
M  V30 41 1 16 39
M  V30 42 1 17 40
M  V30 43 1 23 41
M  V30 44 1 23 42
M  V30 45 1 24 43
M  V30 46 1 24 44
M  V30 END BOND
M  V30 END CTAB
M  END
>  <Dataset>  (52) 
ChEMBL_Kinases

>  <Ligand_Instance>  (52) 
nan

>  <PDB_ID>  (52) 
nan

>  <Standardized_SMILES>  (52) 
CC1CCN(C(=O)CN(C)S(=O)(=O)c2cccc3nsnc23)CC1

>  <Name>  (52) 
nan

>  <Pocket>  (52) 
nan

>  <ATP_Site>  (52) 
nan

>  <Peripheral>  (52) 
nan

>  <Num_H_Atoms_ProtBoundConf>  (52) 
nan

>  <Num_Resolved_Atoms>  (52) 
nan

>  <Num_Not_Resolved_Atoms>  (52) 
nan

$$$$
CHEMBL1581647
     RDKit          3D

  0  0  0  0  0  0  0  0  0  0999 V3000
M  V30 BEGIN CTAB
M  V30 COUNTS 44 46 0 0 0
M  V30 BEGIN ATOM
M  V30 1 C -1.904465 -2.742364 3.233835 0
M  V30 2 C -0.870762 -1.742838 2.995572 0
M  V30 3 C 0.436282 -1.932853 3.691269 0
M  V30 4 C 1.515926 -1.341070 2.804540 0
M  V30 5 C 0.644108 -0.533019 1.829268 0
M  V30 6 C 1.369671 -0.044559 0.696198 0
M  V30 7 O 2.412860 -0.617154 1.164579 0
M  V30 8 N 1.217767 0.714060 -0.482706 0
M  V30 9 C 0.157461 1.426065 -1.167641 0
M  V30 10 C 0.271461 1.057988 -2.652966 0
M  V30 11 C 1.385029 1.939389 -3.191261 0
M  V30 12 C 2.442073 2.017906 -2.112400 0
M  V30 13 C 2.466395 0.811372 -1.218138 0
M  V30 14 C -0.115996 0.446235 2.641172 0 CFG=2
M  V30 15 Br 1.019071 1.083441 4.071900 0
M  V30 16 C -1.271025 -0.322767 3.217524 0
M  V30 17 O -2.254907 0.178389 3.723707 0
M  V30 18 C -0.376000 -1.636932 1.545375 0
M  V30 19 C 0.257590 -2.920786 1.161726 0
M  V30 20 C -1.452718 -1.247126 0.608840 0
M  V30 21 H -1.780059 -3.344727 4.178873 0
M  V30 22 H -1.872144 -3.522246 2.428850 0
M  V30 23 H -2.935778 -2.314830 3.184529 0
M  V30 24 H 0.394561 -1.402431 4.681720 0
M  V30 25 H 0.649092 -2.988072 3.952251 0
M  V30 26 H 2.228797 -0.725622 3.351605 0
M  V30 27 H 2.064655 -2.155789 2.263105 0
M  V30 28 H 0.393715 2.510176 -1.030057 0
M  V30 29 H -0.852350 1.163627 -0.868025 0
M  V30 30 H 0.591815 0.000827 -2.713907 0
M  V30 31 H -0.699014 1.268009 -3.125912 0
M  V30 32 H 1.769112 1.602782 -4.168152 0
M  V30 33 H 0.929879 2.950373 -3.359855 0
M  V30 34 H 2.306417 2.959409 -1.567772 0
M  V30 35 H 3.427165 2.083881 -2.653006 0
M  V30 36 H 2.572187 -0.073643 -1.912364 0
M  V30 37 H 3.350073 0.890853 -0.568955 0
M  V30 38 H -0.458659 1.340804 2.095166 0
M  V30 39 H 0.454440 -3.595798 2.008534 0
M  V30 40 H -0.477815 -3.480485 0.515978 0
M  V30 41 H 1.172069 -2.830163 0.557240 0
M  V30 42 H -1.053488 -1.360172 -0.418167 0
M  V30 43 H -1.870282 -0.241655 0.789229 0
M  V30 44 H -2.256327 -1.999308 0.696285 0
M  V30 END ATOM
M  V30 BEGIN BOND
M  V30 1 1 1 2
M  V30 2 1 2 3
M  V30 3 1 3 4
M  V30 4 1 4 5
M  V30 5 1 5 6
M  V30 6 2 6 7
M  V30 7 1 6 8
M  V30 8 1 8 9
M  V30 9 1 9 10
M  V30 10 1 10 11
M  V30 11 1 11 12
M  V30 12 1 12 13
M  V30 13 1 5 14
M  V30 14 1 14 15
M  V30 15 1 14 16
M  V30 16 2 16 17
M  V30 17 1 5 18
M  V30 18 1 18 19
M  V30 19 1 18 20
M  V30 20 1 16 2
M  V30 21 1 18 2
M  V30 22 1 13 8
M  V30 23 1 1 21
M  V30 24 1 1 22
M  V30 25 1 1 23
M  V30 26 1 3 24
M  V30 27 1 3 25
M  V30 28 1 4 26
M  V30 29 1 4 27
M  V30 30 1 9 28
M  V30 31 1 9 29
M  V30 32 1 10 30
M  V30 33 1 10 31
M  V30 34 1 11 32
M  V30 35 1 11 33
M  V30 36 1 12 34
M  V30 37 1 12 35
M  V30 38 1 13 36
M  V30 39 1 13 37
M  V30 40 1 14 38 CFG=3
M  V30 41 1 19 39
M  V30 42 1 19 40
M  V30 43 1 19 41
M  V30 44 1 20 42
M  V30 45 1 20 43
M  V30 46 1 20 44
M  V30 END BOND
M  V30 END CTAB
M  END
>  <Dataset>  (53) 
ChEMBL_Kinases

>  <Ligand_Instance>  (53) 
nan

>  <PDB_ID>  (53) 
nan

>  <Standardized_SMILES>  (53) 
CC12CCC(C(=O)N3CCCCC3)([C@H](Br)C1=O)C2(C)C

>  <Name>  (53) 
nan

>  <Pocket>  (53) 
nan

>  <ATP_Site>  (53) 
nan

>  <Peripheral>  (53) 
nan

>  <Num_H_Atoms_ProtBoundConf>  (53) 
nan

>  <Num_Resolved_Atoms>  (53) 
nan

>  <Num_Not_Resolved_Atoms>  (53) 
nan

$$$$
CHEMBL1581511
     RDKit          3D

  0  0  0  0  0  0  0  0  0  0999 V3000
M  V30 BEGIN CTAB
M  V30 COUNTS 49 51 0 0 0
M  V30 BEGIN ATOM
M  V30 1 C -3.100500 -5.671335 -0.528779 0
M  V30 2 O -1.816438 -6.219976 -0.766150 0
M  V30 3 C -0.701173 -5.376623 -0.893934 0
M  V30 4 C -0.865907 -4.012118 -0.786383 0
M  V30 5 C 0.260264 -3.211470 -0.918374 0
M  V30 6 C 1.516428 -3.777689 -1.152671 0
M  V30 7 C 2.646584 -2.788289 -1.273974 0
M  V30 8 C 3.229559 -2.567448 0.103258 0
M  V30 9 N 2.297059 -2.051265 1.061444 0
M  V30 10 C 1.683249 -0.793551 1.149265 0
M  V30 11 C 1.910459 0.246914 0.276042 0
M  V30 12 C 1.296270 1.476039 0.402555 0
M  V30 13 C 0.410416 1.730206 1.425183 0
M  V30 14 N -0.229972 2.988637 1.568150 0
M  V30 15 C -0.093653 4.134027 0.735889 0
M  V30 16 O 0.755025 4.372725 -0.153342 0
M  V30 17 C -1.151188 5.116503 1.047240 0
M  V30 18 C -2.100761 4.354440 1.938854 0
M  V30 19 C -2.812024 5.210846 2.925525 0
M  V30 20 C -1.142504 3.379197 2.572758 0
M  V30 21 O -1.172190 2.996513 3.787506 0
M  V30 22 C 0.167623 0.706610 2.310150 0
M  V30 23 C 0.792459 -0.509815 2.162425 0
M  V30 24 N 0.438185 -1.460761 3.158489 0 CHG=1 VAL=4
M  V30 25 O 0.897142 -2.418485 3.795895 0
M  V30 26 O -0.816292 -1.453033 3.721869 0 CHG=-1 VAL=1
M  V30 27 C 1.640807 -5.146273 -1.253992 0
M  V30 28 C 0.531060 -5.955226 -1.125036 0
M  V30 29 H -3.079305 -5.072317 0.403139 0
M  V30 30 H -3.784168 -6.534531 -0.399448 0
M  V30 31 H -3.425009 -5.029586 -1.384450 0
M  V30 32 H -1.856642 -3.595665 -0.603548 0
M  V30 33 H 0.047754 -2.149265 -0.821536 0
M  V30 34 H 2.307392 -1.863004 -1.727161 0
M  V30 35 H 3.421147 -3.259829 -1.943541 0
M  V30 36 H 3.740915 -3.478153 0.433795 0
M  V30 37 H 4.048174 -1.802424 -0.060339 0
M  V30 38 H 2.051108 -2.763790 1.812513 0
M  V30 39 H 2.596300 0.122043 -0.538998 0
M  V30 40 H 1.540843 2.224535 -0.334278 0
M  V30 41 H -1.695679 5.394663 0.134101 0
M  V30 42 H -0.776507 5.979862 1.635010 0
M  V30 43 H -2.801157 3.744810 1.322492 0
M  V30 44 H -2.918301 6.266229 2.610664 0
M  V30 45 H -3.845835 4.825434 3.041330 0
M  V30 46 H -2.280293 5.196949 3.914227 0
M  V30 47 H -0.528012 0.897364 3.114228 0
M  V30 48 H 2.665038 -5.492351 -1.437901 0
M  V30 49 H 0.695151 -7.017723 -1.214563 0
M  V30 END ATOM
M  V30 BEGIN BOND
M  V30 1 1 1 2
M  V30 2 1 2 3
M  V30 3 2 3 4
M  V30 4 1 4 5
M  V30 5 2 5 6
M  V30 6 1 6 7
M  V30 7 1 7 8
M  V30 8 1 8 9
M  V30 9 1 9 10
M  V30 10 2 10 11
M  V30 11 1 11 12
M  V30 12 2 12 13
M  V30 13 1 13 14
M  V30 14 1 14 15
M  V30 15 2 15 16
M  V30 16 1 15 17
M  V30 17 1 17 18
M  V30 18 1 18 19
M  V30 19 1 18 20
M  V30 20 2 20 21
M  V30 21 1 13 22
M  V30 22 2 22 23
M  V30 23 1 23 24
M  V30 24 2 24 25
M  V30 25 1 24 26
M  V30 26 1 6 27
M  V30 27 2 27 28
M  V30 28 1 28 3
M  V30 29 1 23 10
M  V30 30 1 20 14
M  V30 31 1 1 29
M  V30 32 1 1 30
M  V30 33 1 1 31
M  V30 34 1 4 32
M  V30 35 1 5 33
M  V30 36 1 7 34
M  V30 37 1 7 35
M  V30 38 1 8 36
M  V30 39 1 8 37
M  V30 40 1 9 38
M  V30 41 1 11 39
M  V30 42 1 12 40
M  V30 43 1 17 41
M  V30 44 1 17 42
M  V30 45 1 18 43
M  V30 46 1 19 44
M  V30 47 1 19 45
M  V30 48 1 19 46
M  V30 49 1 22 47
M  V30 50 1 27 48
M  V30 51 1 28 49
M  V30 END BOND
M  V30 END CTAB
M  END
>  <Dataset>  (54) 
ChEMBL_Kinases

>  <Ligand_Instance>  (54) 
nan

>  <PDB_ID>  (54) 
nan

>  <Standardized_SMILES>  (54) 
COc1ccc(CCNc2ccc(N3C(=O)CC(C)C3=O)cc2[N+](=O)[O-])cc1

>  <Name>  (54) 
nan

>  <Pocket>  (54) 
nan

>  <ATP_Site>  (54) 
nan

>  <Peripheral>  (54) 
nan

>  <Num_H_Atoms_ProtBoundConf>  (54) 
nan

>  <Num_Resolved_Atoms>  (54) 
nan

>  <Num_Not_Resolved_Atoms>  (54) 
nan

$$$$
CHEMBL1581471
     RDKit          3D

  0  0  0  0  0  0  0  0  0  0999 V3000
M  V30 BEGIN CTAB
M  V30 COUNTS 51 54 0 0 0
M  V30 BEGIN ATOM
M  V30 1 O -1.816089 -1.008397 3.845679 0
M  V30 2 C -0.901452 -1.519129 3.095149 0
M  V30 3 C 0.316269 -1.241019 3.866688 0
M  V30 4 S 0.865565 0.468003 3.815815 0
M  V30 5 C 1.524247 0.907116 2.228669 0
M  V30 6 N 2.869646 0.668229 2.210448 0
M  V30 7 C 3.656038 0.908618 1.154773 0
M  V30 8 C 5.032800 0.669536 1.154957 0
M  V30 9 C 5.748987 0.961518 0.016989 0
M  V30 10 C 5.214857 1.480629 -1.145751 0
M  V30 11 C 3.833934 1.718215 -1.139991 0
M  V30 12 C 3.117202 1.425755 -0.000592 0
M  V30 13 C 1.770596 1.659357 0.031441 0
M  V30 14 O 1.175189 2.126378 -0.959091 0
M  V30 15 N 0.999393 1.412266 1.098766 0
M  V30 16 C -0.400294 1.623291 1.239330 0
M  V30 17 C -1.045102 2.210338 2.306384 0
M  V30 18 C -2.415068 2.327595 2.249392 0
M  V30 19 C -3.183391 1.897102 1.195658 0
M  V30 20 C -2.490784 1.313552 0.146403 0
M  V30 21 C -1.106527 1.155532 0.122698 0
M  V30 22 N -1.423730 -2.078049 1.951700 0
M  V30 23 C -2.757640 -2.134967 1.607321 0
M  V30 24 O -3.640331 -1.615853 2.369710 0
M  V30 25 C -3.329399 -2.751443 0.405860 0
M  V30 26 N -2.269114 -3.315336 -0.398436 0
M  V30 27 C -1.687859 -4.632831 -0.372418 0
M  V30 28 C -0.504160 -4.579820 -1.275503 0
M  V30 29 C -0.412286 -3.213843 -1.896005 0
M  V30 30 C -1.634799 -2.531393 -1.401141 0
M  V30 31 O -1.971982 -1.417482 -1.872409 0
M  V30 32 H 1.164742 -1.907377 3.473462 0
M  V30 33 H 0.238739 -1.574252 4.931805 0
M  V30 34 H 5.477237 0.262650 2.054593 0
M  V30 35 H 6.819221 0.736754 0.119070 0
M  V30 36 H 5.857258 1.678314 -1.992092 0
M  V30 37 H 3.402866 2.123518 -2.042744 0
M  V30 38 H -0.415948 2.540703 3.116257 0
M  V30 39 H -2.885738 2.795705 3.106134 0
M  V30 40 H -4.257044 2.000228 1.173230 0
M  V30 41 H -3.084373 0.960931 -0.703712 0
M  V30 42 H -0.682813 0.698136 -0.732359 0
M  V30 43 H -0.637080 -2.444056 1.428136 0
M  V30 44 H -4.052279 -3.546592 0.717159 0
M  V30 45 H -3.893272 -1.952548 -0.145685 0
M  V30 46 H -2.452194 -5.343238 -0.790040 0
M  V30 47 H -1.410424 -4.965701 0.662467 0
M  V30 48 H 0.405458 -4.802136 -0.656787 0
M  V30 49 H -0.590585 -5.313389 -2.115608 0
M  V30 50 H 0.514670 -2.720963 -1.507029 0
M  V30 51 H -0.405454 -3.246864 -3.024091 0
M  V30 END ATOM
M  V30 BEGIN BOND
M  V30 1 2 1 2
M  V30 2 1 2 3
M  V30 3 1 3 4
M  V30 4 1 4 5
M  V30 5 2 5 6
M  V30 6 1 6 7
M  V30 7 2 7 8
M  V30 8 1 8 9
M  V30 9 2 9 10
M  V30 10 1 10 11
M  V30 11 2 11 12
M  V30 12 1 12 13
M  V30 13 2 13 14
M  V30 14 1 13 15
M  V30 15 1 15 16
M  V30 16 2 16 17
M  V30 17 1 17 18
M  V30 18 2 18 19
M  V30 19 1 19 20
M  V30 20 2 20 21
M  V30 21 1 2 22
M  V30 22 1 22 23
M  V30 23 2 23 24
M  V30 24 1 23 25
M  V30 25 1 25 26
M  V30 26 1 26 27
M  V30 27 1 27 28
M  V30 28 1 28 29
M  V30 29 1 29 30
M  V30 30 2 30 31
M  V30 31 1 15 5
M  V30 32 1 21 16
M  V30 33 1 30 26
M  V30 34 1 12 7
M  V30 35 1 3 32
M  V30 36 1 3 33
M  V30 37 1 8 34
M  V30 38 1 9 35
M  V30 39 1 10 36
M  V30 40 1 11 37
M  V30 41 1 17 38
M  V30 42 1 18 39
M  V30 43 1 19 40
M  V30 44 1 20 41
M  V30 45 1 21 42
M  V30 46 1 22 43
M  V30 47 1 25 44
M  V30 48 1 25 45
M  V30 49 1 27 46
M  V30 50 1 27 47
M  V30 51 1 28 48
M  V30 52 1 28 49
M  V30 53 1 29 50
M  V30 54 1 29 51
M  V30 END BOND
M  V30 END CTAB
M  END
>  <Dataset>  (55) 
ChEMBL_Kinases

>  <Ligand_Instance>  (55) 
nan

>  <PDB_ID>  (55) 
nan

>  <Standardized_SMILES>  (55) 
O=C(CSc1nc2ccccc2c(=O)n1-c1ccccc1)NC(=O)CN1CCCC1=O

>  <Name>  (55) 
nan

>  <Pocket>  (55) 
nan

>  <ATP_Site>  (55) 
nan

>  <Peripheral>  (55) 
nan

>  <Num_H_Atoms_ProtBoundConf>  (55) 
nan

>  <Num_Resolved_Atoms>  (55) 
nan

>  <Num_Not_Resolved_Atoms>  (55) 
nan

$$$$
CHEMBL1581445
     RDKit          3D

  0  0  0  0  0  0  0  0  0  0999 V3000
M  V30 BEGIN CTAB
M  V30 COUNTS 49 53 0 0 0
M  V30 BEGIN ATOM
M  V30 1 N 0.582880 2.584213 2.148873 0
M  V30 2 C 0.144386 1.564256 1.809853 0
M  V30 3 C -0.425455 0.293025 1.398873 0
M  V30 4 C 0.391861 -0.445285 0.575608 0
M  V30 5 O 1.639164 0.012425 0.193042 0
M  V30 6 C 2.414733 -0.809898 -0.655323 0
M  V30 7 C 3.710006 -0.223813 -0.991480 0
M  V30 8 O 4.275773 -1.068578 -1.756150 0
M  V30 9 C 4.424688 1.000953 -0.670934 0
M  V30 10 C 5.672524 1.126894 -1.240944 0
M  V30 11 C 6.358178 2.308223 -0.929842 0
M  V30 12 C 5.870557 3.314950 -0.114329 0
M  V30 13 C 4.598731 3.138287 0.439524 0
M  V30 14 C 3.912825 1.983656 0.143537 0
M  V30 15 N -0.062317 -1.632847 0.151884 0
M  V30 16 C -1.271815 -2.044119 0.540821 0
M  V30 17 C -2.120731 -1.339328 1.361637 0
M  V30 18 C -1.702539 -0.117139 1.822787 0
M  V30 19 C -2.400826 0.813902 2.691796 0
M  V30 20 C -3.589424 0.870552 3.325956 0
M  V30 21 C -3.791915 2.011836 4.059714 0
M  V30 22 C -2.618523 2.667721 3.827239 0
M  V30 23 O -1.876764 1.954792 3.056823 0
M  V30 24 C -3.446527 -1.808902 1.776082 0
M  V30 25 C -3.853414 -3.157894 1.249325 0
M  V30 26 C -2.864917 -3.819366 0.377074 0
M  V30 27 C -3.322683 -5.052620 -0.069609 0
M  V30 28 C -2.508668 -5.820530 -0.909314 0
M  V30 29 C -1.278976 -5.318623 -1.260649 0
M  V30 30 C -0.820388 -4.101419 -0.823273 0
M  V30 31 C -1.629205 -3.347720 0.005899 0
M  V30 32 H 2.480709 -1.850185 -0.251848 0
M  V30 33 H 1.802421 -0.903274 -1.599889 0
M  V30 34 H 6.148302 0.410243 -1.887537 0
M  V30 35 H 7.353490 2.448443 -1.362179 0
M  V30 36 H 6.458722 4.192341 0.076213 0
M  V30 37 H 4.232880 3.931073 1.072413 0
M  V30 38 H 2.950321 1.888594 0.584382 0
M  V30 39 H -4.332180 0.104938 3.279074 0
M  V30 40 H -4.623386 2.337098 4.661278 0
M  V30 41 H -2.280503 3.647926 4.197782 0
M  V30 42 H -3.442826 -1.915346 2.886133 0
M  V30 43 H -4.206155 -1.091887 1.385780 0
M  V30 44 H -4.833311 -3.103647 0.697044 0
M  V30 45 H -4.005945 -3.887763 2.105823 0
M  V30 46 H -4.271950 -5.515418 0.160025 0
M  V30 47 H -2.797136 -6.796836 -1.300697 0
M  V30 48 H -0.587467 -5.845435 -1.904682 0
M  V30 49 H 0.135694 -3.695924 -1.088017 0
M  V30 END ATOM
M  V30 BEGIN BOND
M  V30 1 3 1 2
M  V30 2 1 2 3
M  V30 3 2 3 4
M  V30 4 1 4 5
M  V30 5 1 5 6
M  V30 6 1 6 7
M  V30 7 2 7 8
M  V30 8 1 7 9
M  V30 9 2 9 10
M  V30 10 1 10 11
M  V30 11 2 11 12
M  V30 12 1 12 13
M  V30 13 2 13 14
M  V30 14 1 4 15
M  V30 15 2 15 16
M  V30 16 1 16 17
M  V30 17 2 17 18
M  V30 18 1 18 19
M  V30 19 2 19 20
M  V30 20 1 20 21
M  V30 21 2 21 22
M  V30 22 1 22 23
M  V30 23 1 17 24
M  V30 24 1 24 25
M  V30 25 1 25 26
M  V30 26 2 26 27
M  V30 27 1 27 28
M  V30 28 2 28 29
M  V30 29 1 29 30
M  V30 30 2 30 31
M  V30 31 1 18 3
M  V30 32 1 23 19
M  V30 33 1 31 26
M  V30 34 1 14 9
M  V30 35 1 31 16
M  V30 36 1 6 32
M  V30 37 1 6 33
M  V30 38 1 10 34
M  V30 39 1 11 35
M  V30 40 1 12 36
M  V30 41 1 13 37
M  V30 42 1 14 38
M  V30 43 1 20 39
M  V30 44 1 21 40
M  V30 45 1 22 41
M  V30 46 1 24 42
M  V30 47 1 24 43
M  V30 48 1 25 44
M  V30 49 1 25 45
M  V30 50 1 27 46
M  V30 51 1 28 47
M  V30 52 1 29 48
M  V30 53 1 30 49
M  V30 END BOND
M  V30 END CTAB
M  END
>  <Dataset>  (56) 
ChEMBL_Kinases

>  <Ligand_Instance>  (56) 
nan

>  <PDB_ID>  (56) 
nan

>  <Standardized_SMILES>  (56) 
N#Cc1c(OCC(=O)c2ccccc2)nc2c(c1-c1ccco1)CCc1ccccc1-2

>  <Name>  (56) 
nan

>  <Pocket>  (56) 
nan

>  <ATP_Site>  (56) 
nan

>  <Peripheral>  (56) 
nan

>  <Num_H_Atoms_ProtBoundConf>  (56) 
nan

>  <Num_Resolved_Atoms>  (56) 
nan

>  <Num_Not_Resolved_Atoms>  (56) 
nan

$$$$
CHEMBL1581436
     RDKit          3D

  0  0  0  0  0  0  0  0  0  0999 V3000
M  V30 BEGIN CTAB
M  V30 COUNTS 47 49 0 0 0
M  V30 BEGIN ATOM
M  V30 1 C -3.199944 3.843733 4.762719 0
M  V30 2 C -1.865227 3.241783 4.673458 0
M  V30 3 N -1.100849 3.251308 3.587861 0
M  V30 4 O 0.007658 2.650819 3.814804 0
M  V30 5 C 0.103273 2.188815 5.038063 0
M  V30 6 N 1.188828 1.478859 5.619474 0
M  V30 7 S 2.591125 1.141480 4.672935 0
M  V30 8 O 3.616083 0.414229 5.481207 0
M  V30 9 O 3.187215 2.452731 4.243750 0
M  V30 10 C 2.199039 0.136302 3.295848 0
M  V30 11 C 2.244235 -1.239750 3.394281 0
M  V30 12 C 1.936840 -2.056680 2.326849 0
M  V30 13 C 1.566227 -1.553311 1.100629 0
M  V30 14 N 1.271726 -2.471479 0.068360 0
M  V30 15 C 0.852919 -2.178979 -1.230600 0
M  V30 16 O 0.683825 -1.004531 -1.633500 0
M  V30 17 C 0.529115 -3.044612 -2.360097 0
M  V30 18 O 0.141028 -2.310848 -3.507942 0
M  V30 19 C -0.209561 -2.924603 -4.697700 0
M  V30 20 C -0.230212 -4.284551 -4.928203 0
M  V30 21 C -0.598343 -4.783917 -6.159135 0
M  V30 22 C -0.963591 -3.948345 -7.219803 0
M  V30 23 Cl -1.429703 -4.587074 -8.776406 0
M  V30 24 C -0.921925 -2.601842 -6.923142 0
M  V30 25 C -0.563360 -2.045984 -5.715766 0
M  V30 26 Cl -0.562196 -0.305728 -5.498366 0
M  V30 27 C 1.531034 -0.184521 1.035548 0
M  V30 28 C 1.829852 0.669708 2.073906 0
M  V30 29 C -1.098844 2.564919 5.597774 0
M  V30 30 C -1.532770 2.288386 6.999721 0
M  V30 31 H -3.895508 3.227936 4.130580 0
M  V30 32 H -3.146175 4.883970 4.351229 0
M  V30 33 H -3.652342 3.866510 5.758400 0
M  V30 34 H 1.103859 1.179096 6.618856 0
M  V30 35 H 2.522903 -1.723439 4.313920 0
M  V30 36 H 1.989052 -3.140358 2.459073 0
M  V30 37 H 1.355136 -3.495358 0.221938 0
M  V30 38 H -0.356184 -3.667223 -2.046853 0
M  V30 39 H 1.307497 -3.761621 -2.660124 0
M  V30 40 H 0.052527 -4.930087 -4.105826 0
M  V30 41 H -0.604973 -5.874783 -6.313867 0
M  V30 42 H -1.211032 -1.958611 -7.761247 0
M  V30 43 H 1.255253 0.287180 0.123278 0
M  V30 44 H 1.782513 1.742237 1.944658 0
M  V30 45 H -0.864541 1.601221 7.518739 0
M  V30 46 H -2.535216 1.777033 6.947379 0
M  V30 47 H -1.716180 3.245712 7.484937 0
M  V30 END ATOM
M  V30 BEGIN BOND
M  V30 1 1 1 2
M  V30 2 2 2 3
M  V30 3 1 3 4
M  V30 4 1 4 5
M  V30 5 1 5 6
M  V30 6 1 6 7
M  V30 7 2 7 8
M  V30 8 2 7 9
M  V30 9 1 7 10
M  V30 10 2 10 11
M  V30 11 1 11 12
M  V30 12 2 12 13
M  V30 13 1 13 14
M  V30 14 1 14 15
M  V30 15 2 15 16
M  V30 16 1 15 17
M  V30 17 1 17 18
M  V30 18 1 18 19
M  V30 19 2 19 20
M  V30 20 1 20 21
M  V30 21 2 21 22
M  V30 22 1 22 23
M  V30 23 1 22 24
M  V30 24 2 24 25
M  V30 25 1 25 26
M  V30 26 1 13 27
M  V30 27 2 27 28
M  V30 28 2 5 29
M  V30 29 1 29 30
M  V30 30 1 29 2
M  V30 31 1 28 10
M  V30 32 1 25 19
M  V30 33 1 1 31
M  V30 34 1 1 32
M  V30 35 1 1 33
M  V30 36 1 6 34
M  V30 37 1 11 35
M  V30 38 1 12 36
M  V30 39 1 14 37
M  V30 40 1 17 38
M  V30 41 1 17 39
M  V30 42 1 20 40
M  V30 43 1 21 41
M  V30 44 1 24 42
M  V30 45 1 27 43
M  V30 46 1 28 44
M  V30 47 1 30 45
M  V30 48 1 30 46
M  V30 49 1 30 47
M  V30 END BOND
M  V30 END CTAB
M  END
>  <Dataset>  (57) 
ChEMBL_Kinases

>  <Ligand_Instance>  (57) 
nan

>  <PDB_ID>  (57) 
nan

>  <Standardized_SMILES>  (57) 
Cc1noc(NS(=O)(=O)c2ccc(NC(=O)COc3ccc(Cl)cc3Cl)cc2)c1C

>  <Name>  (57) 
nan

>  <Pocket>  (57) 
nan

>  <ATP_Site>  (57) 
nan

>  <Peripheral>  (57) 
nan

>  <Num_H_Atoms_ProtBoundConf>  (57) 
nan

>  <Num_Resolved_Atoms>  (57) 
nan

>  <Num_Not_Resolved_Atoms>  (57) 
nan

$$$$
CHEMBL1581434
     RDKit          3D

  0  0  0  0  0  0  0  0  0  0999 V3000
M  V30 BEGIN CTAB
M  V30 COUNTS 42 45 0 0 0
M  V30 BEGIN ATOM
M  V30 1 N -0.701336 -5.163974 1.656338 0
M  V30 2 C -0.522510 -4.024205 1.452928 0
M  V30 3 C -0.304325 -2.629166 1.186899 0
M  V30 4 C 0.130720 -2.237417 -0.000291 0
M  V30 5 N 0.403926 -3.149481 -1.064075 0
M  V30 6 N 0.332328 -0.836669 -0.215607 0
M  V30 7 C 0.800651 -0.342632 -1.473773 0
M  V30 8 C 2.186894 -0.272702 -1.529370 0
M  V30 9 C 2.818653 0.181697 -2.667881 0
M  V30 10 C 2.047408 0.570192 -3.762960 0
M  V30 11 C 0.672869 0.494545 -3.691217 0
M  V30 12 C 0.026257 0.036391 -2.544192 0
M  V30 13 C 0.089350 0.152736 0.779265 0
M  V30 14 C -0.344694 -0.284878 1.950881 0
M  V30 15 C -0.603996 0.701640 2.993521 0
M  V30 16 O -0.504292 0.444721 4.215438 0
M  V30 17 C -1.012931 2.106111 2.631604 0
M  V30 18 C -0.848733 2.366086 1.159061 0
M  V30 19 C 0.302480 1.602659 0.543249 0
M  V30 20 C -0.598924 -1.708694 2.316818 0
M  V30 21 C 0.159561 -2.120013 3.528158 0
M  V30 22 C 1.464646 -1.955411 3.226350 0
M  V30 23 C 2.400753 -2.278291 4.216529 0
M  V30 24 S 1.371572 -2.863949 5.701974 0
M  V30 25 C -0.239816 -2.619913 4.850650 0
M  V30 26 H 1.343695 -3.263637 -1.513294 0
M  V30 27 H -0.153622 -3.849387 -1.612637 0
M  V30 28 H 2.857884 -0.549909 -0.736801 0
M  V30 29 H 3.893281 0.254188 -2.759141 0
M  V30 30 H 2.513180 0.937367 -4.687079 0
M  V30 31 H 0.012658 0.776953 -4.496484 0
M  V30 32 H -1.039130 -0.051744 -2.410856 0
M  V30 33 H -2.128991 2.102918 2.804875 0
M  V30 34 H -0.538527 2.848360 3.285915 0
M  V30 35 H -0.688442 3.464212 1.054776 0
M  V30 36 H -1.778521 2.147044 0.569052 0
M  V30 37 H 0.329320 1.846886 -0.524075 0
M  V30 38 H 1.210180 1.936777 1.091786 0
M  V30 39 H -1.702023 -1.835865 2.494597 0
M  V30 40 H 2.209419 -1.668436 2.525839 0
M  V30 41 H 3.440263 -2.400761 4.670006 0
M  V30 42 H -1.442243 -2.656894 4.814936 0
M  V30 END ATOM
M  V30 BEGIN BOND
M  V30 1 3 1 2
M  V30 2 1 2 3
M  V30 3 2 3 4
M  V30 4 1 4 5
M  V30 5 1 4 6
M  V30 6 1 6 7
M  V30 7 2 7 8
M  V30 8 1 8 9
M  V30 9 2 9 10
M  V30 10 1 10 11
M  V30 11 2 11 12
M  V30 12 1 6 13
M  V30 13 2 13 14
M  V30 14 1 14 15
M  V30 15 2 15 16
M  V30 16 1 15 17
M  V30 17 1 17 18
M  V30 18 1 18 19
M  V30 19 1 14 20
M  V30 20 1 20 21
M  V30 21 1 21 22
M  V30 22 2 22 23
M  V30 23 1 23 24
M  V30 24 1 24 25
M  V30 25 1 20 3
M  V30 26 2 25 21
M  V30 27 1 12 7
M  V30 28 1 19 13
M  V30 29 1 5 26
M  V30 30 1 5 27
M  V30 31 1 8 28
M  V30 32 1 9 29
M  V30 33 1 10 30
M  V30 34 1 11 31
M  V30 35 1 12 32
M  V30 36 1 17 33
M  V30 37 1 17 34
M  V30 38 1 18 35
M  V30 39 1 18 36
M  V30 40 1 19 37
M  V30 41 1 19 38
M  V30 42 1 20 39
M  V30 43 1 22 40
M  V30 44 1 23 41
M  V30 45 1 25 42
M  V30 END BOND
M  V30 END CTAB
M  END
>  <Dataset>  (58) 
ChEMBL_Kinases

>  <Ligand_Instance>  (58) 
nan

>  <PDB_ID>  (58) 
nan

>  <Standardized_SMILES>  (58) 
N#CC1=C(N)N(c2ccccc2)C2=C(C(=O)CCC2)C1c1ccsc1

>  <Name>  (58) 
nan

>  <Pocket>  (58) 
nan

>  <ATP_Site>  (58) 
nan

>  <Peripheral>  (58) 
nan

>  <Num_H_Atoms_ProtBoundConf>  (58) 
nan

>  <Num_Resolved_Atoms>  (58) 
nan

>  <Num_Not_Resolved_Atoms>  (58) 
nan

$$$$
CHEMBL1581348
     RDKit          3D

  0  0  0  0  0  0  0  0  0  0999 V3000
M  V30 BEGIN CTAB
M  V30 COUNTS 49 52 0 0 0
M  V30 BEGIN ATOM
M  V30 1 C 2.881446 -4.138477 -0.834111 0
M  V30 2 C 1.609025 -3.799309 -0.108173 0
M  V30 3 O 0.701222 -4.737526 0.072541 0
M  V30 4 C -0.324496 -4.248717 0.720319 0
M  V30 5 C -0.090241 -2.915750 0.986619 0
M  V30 6 C 1.141063 -2.632196 0.457162 0
M  V30 7 C 1.922258 -1.434245 0.409157 0
M  V30 8 O 3.087912 -1.456042 -0.122974 0
M  V30 9 N 1.625818 -0.145898 0.870260 0
M  V30 10 C 2.456176 1.006894 0.792689 0
M  V30 11 C 1.942136 2.003187 -0.219560 0
M  V30 12 C 0.579907 2.506570 0.054284 0
M  V30 13 C 0.330442 3.734014 0.679742 0
M  V30 14 N -0.989491 3.982687 0.845938 0
M  V30 15 C -1.623731 2.916016 0.328512 0
M  V30 16 C -2.966441 2.618692 0.212110 0
M  V30 17 C -3.382573 1.440622 -0.376980 0
M  V30 18 C -2.424799 0.567605 -0.846967 0
M  V30 19 C -1.054345 0.816950 -0.755523 0
M  V30 20 C -0.687210 2.009304 -0.157142 0
M  V30 21 C 2.730731 1.614210 2.096855 0
M  V30 22 O 3.463750 2.642547 1.884872 0
M  V30 23 O 3.081253 2.306413 3.242041 0
M  V30 24 C -1.058878 -2.075176 1.718374 0
M  V30 25 C -1.994658 -3.033896 2.466157 0
M  V30 26 C -2.627534 -4.052212 1.565732 0
M  V30 27 C -1.556512 -5.029386 1.104741 0
M  V30 28 H 2.881600 -3.843819 -1.881107 0
M  V30 29 H 3.772398 -3.653003 -0.337639 0
M  V30 30 H 3.111306 -5.238629 -0.716806 0
M  V30 31 H 0.721416 0.003952 1.319972 0
M  V30 32 H 3.457733 0.667068 0.391778 0
M  V30 33 H 1.915592 1.553682 -1.247737 0
M  V30 34 H 2.640877 2.879470 -0.305131 0
M  V30 35 H 1.096557 4.434726 1.008886 0
M  V30 36 H -1.396891 4.819447 1.279358 0
M  V30 37 H -3.687955 3.343599 0.599334 0
M  V30 38 H -4.431331 1.197264 -0.473462 0
M  V30 39 H -2.685091 -0.386024 -1.325090 0
M  V30 40 H -0.298760 0.136850 -1.124387 0
M  V30 41 H 2.783893 2.003581 4.164344 0
M  V30 42 H -0.601726 -1.491091 2.554714 0
M  V30 43 H -1.688177 -1.499332 1.043438 0
M  V30 44 H -2.726164 -2.515063 3.085581 0
M  V30 45 H -1.300161 -3.560365 3.184526 0
M  V30 46 H -3.373557 -4.594134 2.181729 0
M  V30 47 H -3.078379 -3.512284 0.702986 0
M  V30 48 H -1.947392 -5.531886 0.197200 0
M  V30 49 H -1.345115 -5.788344 1.856440 0
M  V30 END ATOM
M  V30 BEGIN BOND
M  V30 1 1 1 2
M  V30 2 1 2 3
M  V30 3 1 3 4
M  V30 4 2 4 5
M  V30 5 1 5 6
M  V30 6 1 6 7
M  V30 7 2 7 8
M  V30 8 1 7 9
M  V30 9 1 9 10
M  V30 10 1 10 11
M  V30 11 1 11 12
M  V30 12 2 12 13
M  V30 13 1 13 14
M  V30 14 1 14 15
M  V30 15 2 15 16
M  V30 16 1 16 17
M  V30 17 2 17 18
M  V30 18 1 18 19
M  V30 19 2 19 20
M  V30 20 1 10 21
M  V30 21 2 21 22
M  V30 22 1 21 23
M  V30 23 1 5 24
M  V30 24 1 24 25
M  V30 25 1 25 26
M  V30 26 1 26 27
M  V30 27 2 6 2
M  V30 28 1 20 12
M  V30 29 1 27 4
M  V30 30 1 20 15
M  V30 31 1 1 28
M  V30 32 1 1 29
M  V30 33 1 1 30
M  V30 34 1 9 31
M  V30 35 1 10 32
M  V30 36 1 11 33
M  V30 37 1 11 34
M  V30 38 1 13 35
M  V30 39 1 14 36
M  V30 40 1 16 37
M  V30 41 1 17 38
M  V30 42 1 18 39
M  V30 43 1 19 40
M  V30 44 1 23 41
M  V30 45 1 24 42
M  V30 46 1 24 43
M  V30 47 1 25 44
M  V30 48 1 25 45
M  V30 49 1 26 46
M  V30 50 1 26 47
M  V30 51 1 27 48
M  V30 52 1 27 49
M  V30 END BOND
M  V30 END CTAB
M  END
>  <Dataset>  (59) 
ChEMBL_Kinases

>  <Ligand_Instance>  (59) 
nan

>  <PDB_ID>  (59) 
nan

>  <Standardized_SMILES>  (59) 
Cc1oc2c(c1C(=O)NC(Cc1c[nH]c3ccccc13)C(=O)O)CCCC2

>  <Name>  (59) 
nan

>  <Pocket>  (59) 
nan

>  <ATP_Site>  (59) 
nan

>  <Peripheral>  (59) 
nan

>  <Num_H_Atoms_ProtBoundConf>  (59) 
nan

>  <Num_Resolved_Atoms>  (59) 
nan

>  <Num_Not_Resolved_Atoms>  (59) 
nan

$$$$
CHEMBL1581335
     RDKit          3D

  0  0  0  0  0  0  0  0  0  0999 V3000
M  V30 BEGIN CTAB
M  V30 COUNTS 53 57 0 0 0
M  V30 BEGIN ATOM
M  V30 1 C 7.674342 -4.562286 0.202032 0
M  V30 2 N 6.388421 -3.945224 0.034097 0
M  V30 3 C 5.869432 -3.964044 -1.286723 0
M  V30 4 O 6.544376 -4.498477 -2.183565 0
M  V30 5 C 4.561643 -3.360617 -1.570310 0
M  V30 6 C 3.996328 -3.346824 -2.847465 0
M  V30 7 C 2.790208 -2.682948 -2.607250 0
M  V30 8 C 2.686485 -2.343315 -1.266150 0
M  V30 9 C 1.611511 -1.652574 -0.589125 0
M  V30 10 S 1.624315 -1.288552 1.141705 0
M  V30 11 C 0.001491 -0.463149 1.148460 0
M  V30 12 N -0.688496 0.101032 2.149413 0
M  V30 13 C -1.892124 0.671647 1.962703 0
M  V30 14 N -2.590953 1.259632 3.045219 0
M  V30 15 C -3.039778 2.613463 3.257430 0
M  V30 16 C -2.497699 3.052411 4.601598 0
M  V30 17 O -1.562298 2.167484 5.121915 0
M  V30 18 C -2.090889 0.899206 5.351464 0
M  V30 19 C -2.978930 0.450535 4.211182 0
M  V30 20 C -2.315749 0.606501 0.654155 0
M  V30 21 C -1.634681 0.036283 -0.396855 0
M  V30 22 C -0.403487 -0.539664 -0.169574 0
M  V30 23 C 0.420360 -1.146980 -1.052513 0
M  V30 24 N 0.167753 -1.319548 -2.455754 0
M  V30 25 C -2.349604 0.132859 -1.649112 0
M  V30 26 C -3.712197 -0.523881 -1.458643 0
M  V30 27 C -4.478624 0.131261 -0.336499 0
M  V30 28 C -3.657962 1.217735 0.342856 0
M  V30 29 O 3.787389 -2.784337 -0.714567 0
M  V30 30 H 8.523862 -3.852732 0.182898 0
M  V30 31 H 7.691582 -5.029017 1.212643 0
M  V30 32 H 7.852660 -5.415841 -0.501230 0
M  V30 33 H 5.884203 -3.516992 0.839682 0
M  V30 34 H 4.375260 -3.737779 -3.775285 0
M  V30 35 H 2.044655 -2.464475 -3.355582 0
M  V30 36 H -4.145702 2.722131 3.308597 0
M  V30 37 H -2.715002 3.296322 2.445807 0
M  V30 38 H -1.993889 4.043179 4.531587 0
M  V30 39 H -3.306047 3.192040 5.339672 0
M  V30 40 H -1.258366 0.179393 5.469921 0
M  V30 41 H -2.644790 0.852439 6.332718 0
M  V30 42 H -2.789678 -0.630024 4.053239 0
M  V30 43 H -4.057079 0.601600 4.450682 0
M  V30 44 H -0.391059 -2.165656 -2.770131 0
M  V30 45 H 0.577373 -0.564125 -3.037680 0
M  V30 46 H -1.892598 -0.189591 -2.563288 0
M  V30 47 H -2.600797 1.225419 -1.800620 0
M  V30 48 H -3.597328 -1.613867 -1.273235 0
M  V30 49 H -4.255810 -0.422644 -2.421536 0
M  V30 50 H -4.761181 -0.623465 0.422949 0
M  V30 51 H -5.406368 0.608088 -0.689279 0
M  V30 52 H -3.581764 2.129254 -0.258782 0
M  V30 53 H -4.196651 1.444731 1.283733 0
M  V30 END ATOM
M  V30 BEGIN BOND
M  V30 1 1 1 2
M  V30 2 1 2 3
M  V30 3 2 3 4
M  V30 4 1 3 5
M  V30 5 2 5 6
M  V30 6 1 6 7
M  V30 7 2 7 8
M  V30 8 1 8 9
M  V30 9 1 9 10
M  V30 10 1 10 11
M  V30 11 2 11 12
M  V30 12 1 12 13
M  V30 13 1 13 14
M  V30 14 1 14 15
M  V30 15 1 15 16
M  V30 16 1 16 17
M  V30 17 1 17 18
M  V30 18 1 18 19
M  V30 19 2 13 20
M  V30 20 1 20 21
M  V30 21 2 21 22
M  V30 22 1 22 23
M  V30 23 1 23 24
M  V30 24 1 21 25
M  V30 25 1 25 26
M  V30 26 1 26 27
M  V30 27 1 27 28
M  V30 28 1 8 29
M  V30 29 1 29 5
M  V30 30 2 23 9
M  V30 31 1 22 11
M  V30 32 1 19 14
M  V30 33 1 28 20
M  V30 34 1 1 30
M  V30 35 1 1 31
M  V30 36 1 1 32
M  V30 37 1 2 33
M  V30 38 1 6 34
M  V30 39 1 7 35
M  V30 40 1 15 36
M  V30 41 1 15 37
M  V30 42 1 16 38
M  V30 43 1 16 39
M  V30 44 1 18 40
M  V30 45 1 18 41
M  V30 46 1 19 42
M  V30 47 1 19 43
M  V30 48 1 24 44
M  V30 49 1 24 45
M  V30 50 1 25 46
M  V30 51 1 25 47
M  V30 52 1 26 48
M  V30 53 1 26 49
M  V30 54 1 27 50
M  V30 55 1 27 51
M  V30 56 1 28 52
M  V30 57 1 28 53
M  V30 END BOND
M  V30 END CTAB
M  END
>  <Dataset>  (60) 
ChEMBL_Kinases

>  <Ligand_Instance>  (60) 
nan

>  <PDB_ID>  (60) 
nan

>  <Standardized_SMILES>  (60) 
CNC(=O)c1ccc(-c2sc3nc(N4CCOCC4)c4c(c3c2N)CCCC4)o1

>  <Name>  (60) 
nan

>  <Pocket>  (60) 
nan

>  <ATP_Site>  (60) 
nan

>  <Peripheral>  (60) 
nan

>  <Num_H_Atoms_ProtBoundConf>  (60) 
nan

>  <Num_Resolved_Atoms>  (60) 
nan

>  <Num_Not_Resolved_Atoms>  (60) 
nan

$$$$
CHEMBL1581308
     RDKit          3D

  0  0  0  0  0  0  0  0  0  0999 V3000
M  V30 BEGIN CTAB
M  V30 COUNTS 44 46 0 0 0
M  V30 BEGIN ATOM
M  V30 1 C 0.685157 -4.226342 2.936448 0
M  V30 2 C -0.705595 -3.994697 3.429842 0
M  V30 3 O -1.651731 -4.155194 2.390106 0
M  V30 4 C -1.665845 -3.408906 1.244080 0
M  V30 5 C -0.833762 -2.388765 0.831365 0
M  V30 6 C -1.023893 -1.756966 -0.380354 0
M  V30 7 C -0.089906 -0.695589 -0.717194 0
M  V30 8 C 0.251069 0.249239 0.226870 0
M  V30 9 C 1.127302 1.280377 -0.021437 0
M  V30 10 C 1.514499 2.299640 0.947927 0
M  V30 11 C 2.408365 3.260493 0.520370 0
M  V30 12 C 2.824626 4.270411 1.398141 0
M  V30 13 C 2.326387 4.283351 2.686637 0
M  V30 14 N 2.736284 5.303988 3.601078 0
M  V30 15 C 1.430574 3.323831 3.121681 0
M  V30 16 C 1.026458 2.326713 2.237610 0
M  V30 17 N 1.659436 1.341043 -1.254980 0
M  V30 18 C 1.340791 0.419896 -2.210341 0
M  V30 19 N 1.944020 0.539436 -3.511497 0
M  V30 20 C 0.461678 -0.613308 -1.958684 0
M  V30 21 C 0.165008 -1.542813 -2.985734 0
M  V30 22 N -0.068072 -2.294656 -3.833516 0
M  V30 23 C -2.067500 -2.148385 -1.203698 0
M  V30 24 C -2.920813 -3.163904 -0.826727 0
M  V30 25 C -2.716868 -3.796701 0.405217 0
M  V30 26 O -3.642438 -4.805600 0.674259 0
M  V30 27 H 0.639572 -4.437571 1.840563 0
M  V30 28 H 1.182744 -5.058372 3.486767 0
M  V30 29 H 1.302313 -3.335737 3.124063 0
M  V30 30 H -0.799461 -2.952560 3.818905 0
M  V30 31 H -0.887550 -4.650581 4.279650 0
M  V30 32 H -0.062582 -2.163142 1.535922 0
M  V30 33 H -0.185454 0.175524 1.192936 0
M  V30 34 H 2.827057 3.287987 -0.488955 0
M  V30 35 H 3.517153 5.039193 1.113510 0
M  V30 36 H 3.702476 4.954480 3.849719 0
M  V30 37 H 3.700699 5.228276 4.038301 0
M  V30 38 H 1.035141 3.333584 4.143335 0
M  V30 39 H 0.330944 1.581132 2.574222 0
M  V30 40 H 1.174162 0.868062 -4.149019 0
M  V30 41 H 2.847633 0.418670 -4.028628 0
M  V30 42 H -2.208466 -1.649937 -2.147414 0
M  V30 43 H -3.719908 -3.436914 -1.497496 0
M  V30 44 H -3.513820 -5.779506 0.443739 0
M  V30 END ATOM
M  V30 BEGIN BOND
M  V30 1 1 1 2
M  V30 2 1 2 3
M  V30 3 1 3 4
M  V30 4 2 4 5
M  V30 5 1 5 6
M  V30 6 1 6 7
M  V30 7 2 7 8
M  V30 8 1 8 9
M  V30 9 1 9 10
M  V30 10 2 10 11
M  V30 11 1 11 12
M  V30 12 2 12 13
M  V30 13 1 13 14
M  V30 14 1 13 15
M  V30 15 2 15 16
M  V30 16 2 9 17
M  V30 17 1 17 18
M  V30 18 1 18 19
M  V30 19 2 18 20
M  V30 20 1 20 21
M  V30 21 3 21 22
M  V30 22 2 6 23
M  V30 23 1 23 24
M  V30 24 2 24 25
M  V30 25 1 25 26
M  V30 26 1 25 4
M  V30 27 1 20 7
M  V30 28 1 16 10
M  V30 29 1 1 27
M  V30 30 1 1 28
M  V30 31 1 1 29
M  V30 32 1 2 30
M  V30 33 1 2 31
M  V30 34 1 5 32
M  V30 35 1 8 33
M  V30 36 1 11 34
M  V30 37 1 12 35
M  V30 38 1 14 36
M  V30 39 1 14 37
M  V30 40 1 15 38
M  V30 41 1 16 39
M  V30 42 1 19 40
M  V30 43 1 19 41
M  V30 44 1 23 42
M  V30 45 1 24 43
M  V30 46 1 26 44
M  V30 END BOND
M  V30 END CTAB
M  END
>  <Dataset>  (61) 
ChEMBL_Kinases

>  <Ligand_Instance>  (61) 
nan

>  <PDB_ID>  (61) 
nan

>  <Standardized_SMILES>  (61) 
CCOc1cc(-c2cc(-c3ccc(N)cc3)nc(N)c2C#N)ccc1O

>  <Name>  (61) 
nan

>  <Pocket>  (61) 
nan

>  <ATP_Site>  (61) 
nan

>  <Peripheral>  (61) 
nan

>  <Num_H_Atoms_ProtBoundConf>  (61) 
nan

>  <Num_Resolved_Atoms>  (61) 
nan

>  <Num_Not_Resolved_Atoms>  (61) 
nan

$$$$
CHEMBL1581300
     RDKit          3D

  0  0  0  0  0  0  0  0  0  0999 V3000
M  V30 BEGIN CTAB
M  V30 COUNTS 35 36 0 0 0
M  V30 BEGIN ATOM
M  V30 1 C 0.583088 -3.192931 5.201948 0
M  V30 2 C 0.546845 -3.369394 3.726372 0
M  V30 3 C 0.300869 -4.637073 3.249062 0
M  V30 4 C 0.272985 -4.770951 1.882331 0
M  V30 5 C 0.481711 -3.686147 1.069738 0
M  V30 6 C 0.726555 -2.424489 1.567361 0
M  V30 7 C 0.962804 -1.197749 0.822877 0
M  V30 8 O 1.175560 -0.104218 1.375887 0
M  V30 9 N 0.998388 -1.001084 -0.563948 0
M  V30 10 C 1.131446 -0.283346 -1.778325 0
M  V30 11 C 0.142569 0.816074 -2.052001 0
M  V30 12 C 0.264755 1.925407 -1.092823 0
M  V30 13 N 0.872077 2.478361 -0.033511 0
M  V30 14 N 0.364730 3.643694 0.303926 0
M  V30 15 C -0.640682 3.915058 -0.558283 0
M  V30 16 S -1.484599 5.455093 -0.296136 0
M  V30 17 N -0.691627 2.868343 -1.398595 0
M  V30 18 C -1.754878 3.067092 -2.376712 0
M  V30 19 C 0.755105 -2.287132 2.931813 0
M  V30 20 H 1.615792 -3.270727 5.592488 0
M  V30 21 H -0.110467 -3.901642 5.716209 0
M  V30 22 H 0.237208 -2.168619 5.428130 0
M  V30 23 H 0.144783 -5.448839 3.927475 0
M  V30 24 H 0.083614 -5.746215 1.426816 0
M  V30 25 H 0.462269 -3.778552 -0.002889 0
M  V30 26 H 0.804555 -2.008795 -0.904637 0
M  V30 27 H 2.186781 0.153665 -1.771799 0
M  V30 28 H 1.102045 -0.954184 -2.685269 0
M  V30 29 H -0.892589 0.346276 -2.003890 0
M  V30 30 H 0.209578 1.158700 -3.114982 0
M  V30 31 H -1.824295 5.640329 1.061742 0
M  V30 32 H -2.759801 3.029020 -1.913523 0
M  V30 33 H -1.590736 3.970587 -3.005637 0
M  V30 34 H -1.726040 2.208564 -3.107221 0
M  V30 35 H 0.943764 -1.315631 3.405296 0
M  V30 END ATOM
M  V30 BEGIN BOND
M  V30 1 1 1 2
M  V30 2 2 2 3
M  V30 3 1 3 4
M  V30 4 2 4 5
M  V30 5 1 5 6
M  V30 6 1 6 7
M  V30 7 2 7 8
M  V30 8 1 7 9
M  V30 9 1 9 10
M  V30 10 1 10 11
M  V30 11 1 11 12
M  V30 12 2 12 13
M  V30 13 1 13 14
M  V30 14 2 14 15
M  V30 15 1 15 16
M  V30 16 1 15 17
M  V30 17 1 17 18
M  V30 18 2 6 19
M  V30 19 1 19 2
M  V30 20 1 17 12
M  V30 21 1 1 20
M  V30 22 1 1 21
M  V30 23 1 1 22
M  V30 24 1 3 23
M  V30 25 1 4 24
M  V30 26 1 5 25
M  V30 27 1 9 26
M  V30 28 1 10 27
M  V30 29 1 10 28
M  V30 30 1 11 29
M  V30 31 1 11 30
M  V30 32 1 16 31
M  V30 33 1 18 32
M  V30 34 1 18 33
M  V30 35 1 18 34
M  V30 36 1 19 35
M  V30 END BOND
M  V30 END CTAB
M  END
>  <Dataset>  (62) 
ChEMBL_Kinases

>  <Ligand_Instance>  (62) 
nan

>  <PDB_ID>  (62) 
nan

>  <Standardized_SMILES>  (62) 
Cc1cccc(C(=O)NCCc2nnc(S)n2C)c1

>  <Name>  (62) 
nan

>  <Pocket>  (62) 
nan

>  <ATP_Site>  (62) 
nan

>  <Peripheral>  (62) 
nan

>  <Num_H_Atoms_ProtBoundConf>  (62) 
nan

>  <Num_Resolved_Atoms>  (62) 
nan

>  <Num_Not_Resolved_Atoms>  (62) 
nan

$$$$
CHEMBL1581094
     RDKit          3D

  0  0  0  0  0  0  0  0  0  0999 V3000
M  V30 BEGIN CTAB
M  V30 COUNTS 63 67 0 0 0
M  V30 BEGIN ATOM
M  V30 1 C 0.075758 1.954774 5.799391 0
M  V30 2 O 0.931330 2.795156 5.088353 0
M  V30 3 C 1.797413 2.366851 4.093597 0
M  V30 4 C 1.812628 1.020631 3.788316 0
M  V30 5 C 2.669003 0.596868 2.804674 0
M  V30 6 C 3.513704 1.467091 2.111377 0
M  V30 7 C 4.408360 0.954028 1.068719 0
M  V30 8 C 3.785409 0.950572 -0.300447 0
M  V30 9 N 2.594204 0.124774 -0.338194 0
M  V30 10 C 1.338078 0.760975 -0.035021 0
M  V30 11 O 1.195292 1.976570 0.259309 0
M  V30 12 C 0.080679 0.003136 -0.048603 0
M  V30 13 C -1.143146 0.583975 0.237912 0
M  V30 14 C -2.327256 -0.140437 0.222678 0
M  V30 15 C -2.221840 -1.477540 -0.094611 0
M  V30 16 C -1.038174 -2.121015 -0.390303 0
M  V30 17 C -1.056776 -3.468187 -0.694226 0
M  V30 18 C -2.342915 -4.154704 -0.687972 0
M  V30 19 O -2.931034 -4.751358 0.275345 0
M  V30 20 N -3.222399 -4.296180 -1.797796 0
M  V30 21 C -4.444340 -5.019056 -1.551818 0
M  V30 22 C -5.631999 -4.079344 -1.771396 0
M  V30 23 C -5.674270 -3.889413 -3.293305 0
M  V30 24 C -4.398997 -3.131557 -3.617944 0
M  V30 25 C -3.158020 -3.861587 -3.157860 0
M  V30 26 C 0.170580 -4.073208 -0.986690 0
M  V30 27 C 1.326949 -3.319503 -0.961304 0
M  V30 28 C 1.318935 -1.957514 -0.650646 0
M  V30 29 C 0.111632 -1.350859 -0.360339 0
M  V30 30 C 2.592560 -1.258188 -0.652412 0
M  V30 31 O 3.679276 -1.821076 -0.917546 0
M  V30 32 C 3.428266 2.778053 2.482265 0
M  V30 33 C 2.598025 3.292703 3.458223 0
M  V30 34 O 2.507266 4.602824 3.834471 0
M  V30 35 C 3.216078 5.689151 3.329267 0
M  V30 36 H 0.577013 1.332657 6.572121 0
M  V30 37 H -0.655558 2.601324 6.353698 0
M  V30 38 H -0.551356 1.285081 5.163175 0
M  V30 39 H 1.180573 0.285297 4.289008 0
M  V30 40 H 2.689415 -0.470900 2.553871 0
M  V30 41 H 4.638308 -0.110714 1.313847 0
M  V30 42 H 5.374868 1.482900 1.012212 0
M  V30 43 H 4.493036 0.499677 -1.020411 0
M  V30 44 H 3.506590 1.961903 -0.646166 0
M  V30 45 H -1.163754 1.647647 0.482316 0
M  V30 46 H -3.280803 0.298498 0.442827 0
M  V30 47 H -3.156446 -2.036808 -0.103753 0
M  V30 48 H -4.587194 -5.823721 -2.327376 0
M  V30 49 H -4.499139 -5.490690 -0.572991 0
M  V30 50 H -5.484179 -3.085078 -1.341521 0
M  V30 51 H -6.551621 -4.532987 -1.375199 0
M  V30 52 H -5.598492 -4.881389 -3.741803 0
M  V30 53 H -6.514262 -3.266881 -3.601701 0
M  V30 54 H -4.457595 -2.149633 -3.108244 0
M  V30 55 H -4.313484 -2.974413 -4.711899 0
M  V30 56 H -3.022634 -4.706735 -3.863828 0
M  V30 57 H -2.314290 -3.157674 -3.358415 0
M  V30 58 H 0.147497 -5.128902 -1.223784 0
M  V30 59 H 2.256043 -3.825560 -1.193638 0
M  V30 60 H 4.071646 3.475104 1.961581 0
M  V30 61 H 3.873267 6.186146 4.070121 0
M  V30 62 H 2.442223 6.471515 3.074458 0
M  V30 63 H 3.684599 5.434363 2.376324 0
M  V30 END ATOM
M  V30 BEGIN BOND
M  V30 1 1 1 2
M  V30 2 1 2 3
M  V30 3 2 3 4
M  V30 4 1 4 5
M  V30 5 2 5 6
M  V30 6 1 6 7
M  V30 7 1 7 8
M  V30 8 1 8 9
M  V30 9 1 9 10
M  V30 10 2 10 11
M  V30 11 1 10 12
M  V30 12 2 12 13
M  V30 13 1 13 14
M  V30 14 2 14 15
M  V30 15 1 15 16
M  V30 16 2 16 17
M  V30 17 1 17 18
M  V30 18 2 18 19
M  V30 19 1 18 20
M  V30 20 1 20 21
M  V30 21 1 21 22
M  V30 22 1 22 23
M  V30 23 1 23 24
M  V30 24 1 24 25
M  V30 25 1 17 26
M  V30 26 2 26 27
M  V30 27 1 27 28
M  V30 28 2 28 29
M  V30 29 1 28 30
M  V30 30 2 30 31
M  V30 31 1 6 32
M  V30 32 2 32 33
M  V30 33 1 33 34
M  V30 34 1 34 35
M  V30 35 1 33 3
M  V30 36 1 30 9
M  V30 37 1 29 12
M  V30 38 1 29 16
M  V30 39 1 25 20
M  V30 40 1 1 36
M  V30 41 1 1 37
M  V30 42 1 1 38
M  V30 43 1 4 39
M  V30 44 1 5 40
M  V30 45 1 7 41
M  V30 46 1 7 42
M  V30 47 1 8 43
M  V30 48 1 8 44
M  V30 49 1 13 45
M  V30 50 1 14 46
M  V30 51 1 15 47
M  V30 52 1 21 48
M  V30 53 1 21 49
M  V30 54 1 22 50
M  V30 55 1 22 51
M  V30 56 1 23 52
M  V30 57 1 23 53
M  V30 58 1 24 54
M  V30 59 1 24 55
M  V30 60 1 25 56
M  V30 61 1 25 57
M  V30 62 1 26 58
M  V30 63 1 27 59
M  V30 64 1 32 60
M  V30 65 1 35 61
M  V30 66 1 35 62
M  V30 67 1 35 63
M  V30 END BOND
M  V30 END CTAB
M  END
>  <Dataset>  (63) 
ChEMBL_Kinases

>  <Ligand_Instance>  (63) 
nan

>  <PDB_ID>  (63) 
nan

>  <Standardized_SMILES>  (63) 
COc1ccc(CCN2C(=O)c3cccc4c(C(=O)N5CCCCC5)ccc(c34)C2=O)cc1OC

>  <Name>  (63) 
nan

>  <Pocket>  (63) 
nan

>  <ATP_Site>  (63) 
nan

>  <Peripheral>  (63) 
nan

>  <Num_H_Atoms_ProtBoundConf>  (63) 
nan

>  <Num_Resolved_Atoms>  (63) 
nan

>  <Num_Not_Resolved_Atoms>  (63) 
nan

$$$$
CHEMBL1581089
     RDKit          3D

  0  0  0  0  0  0  0  0  0  0999 V3000
M  V30 BEGIN CTAB
M  V30 COUNTS 23 24 0 0 0
M  V30 BEGIN ATOM
M  V30 1 C 1.944033 0.577896 5.178361 0
M  V30 2 S 2.785782 -0.423810 3.922225 0
M  V30 3 C 2.272852 0.158392 2.307681 0
M  V30 4 N 1.174530 -0.435837 1.774870 0
M  V30 5 C 0.903126 0.081506 0.588170 0
M  V30 6 C -0.182686 -0.263440 -0.323741 0
M  V30 7 C -1.099885 -1.247810 0.006789 0
M  V30 8 C -2.126083 -1.566411 -0.866806 0
M  V30 9 C -2.263306 -0.909992 -2.094025 0
M  V30 10 Cl -3.552718 -1.290650 -3.222912 0
M  V30 11 C -1.350893 0.086904 -2.450891 0
M  V30 12 C -0.357001 0.345154 -1.524862 0
M  V30 13 C 1.858223 1.036558 0.355246 0
M  V30 14 N 2.690778 1.081638 1.403033 0
M  V30 15 H 0.873488 0.768811 4.897343 0
M  V30 16 H 1.896311 0.021938 6.148485 0
M  V30 17 H 2.511987 1.521899 5.252469 0
M  V30 18 H -1.055020 -1.788498 0.926000 0
M  V30 19 H -2.890243 -2.334985 -0.673318 0
M  V30 20 H -1.414979 0.624505 -3.391033 0
M  V30 21 H 0.336731 1.119150 -1.821663 0
M  V30 22 H 2.015153 1.691695 -0.474436 0
M  V30 23 H 3.544466 1.622226 1.692126 0
M  V30 END ATOM
M  V30 BEGIN BOND
M  V30 1 1 1 2
M  V30 2 1 2 3
M  V30 3 2 3 4
M  V30 4 1 4 5
M  V30 5 1 5 6
M  V30 6 2 6 7
M  V30 7 1 7 8
M  V30 8 2 8 9
M  V30 9 1 9 10
M  V30 10 1 9 11
M  V30 11 2 11 12
M  V30 12 2 5 13
M  V30 13 1 13 14
M  V30 14 1 14 3
M  V30 15 1 12 6
M  V30 16 1 1 15
M  V30 17 1 1 16
M  V30 18 1 1 17
M  V30 19 1 7 18
M  V30 20 1 8 19
M  V30 21 1 11 20
M  V30 22 1 12 21
M  V30 23 1 13 22
M  V30 24 1 14 23
M  V30 END BOND
M  V30 END CTAB
M  END
>  <Dataset>  (64) 
ChEMBL_Kinases

>  <Ligand_Instance>  (64) 
nan

>  <PDB_ID>  (64) 
nan

>  <Standardized_SMILES>  (64) 
CSc1nc(-c2ccc(Cl)cc2)c[nH]1

>  <Name>  (64) 
nan

>  <Pocket>  (64) 
nan

>  <ATP_Site>  (64) 
nan

>  <Peripheral>  (64) 
nan

>  <Num_H_Atoms_ProtBoundConf>  (64) 
nan

>  <Num_Resolved_Atoms>  (64) 
nan

>  <Num_Not_Resolved_Atoms>  (64) 
nan

$$$$
CHEMBL1580886
     RDKit          3D

  0  0  0  0  0  0  0  0  0  0999 V3000
M  V30 BEGIN CTAB
M  V30 COUNTS 30 32 0 0 0
M  V30 BEGIN ATOM
M  V30 1 C -2.230140 -3.291176 4.433392 0
M  V30 2 C -1.372856 -2.610194 3.422371 0
M  V30 3 C -0.818286 -3.314836 2.374587 0
M  V30 4 C -0.033426 -2.632912 1.468401 0
M  V30 5 C 0.242134 -1.262128 1.538766 0
M  V30 6 C 1.108573 -0.777436 0.481684 0
M  V30 7 N 2.250428 -1.510842 0.313375 0
M  V30 8 N 3.155928 -1.218086 -0.604434 0
M  V30 9 C 3.063707 -0.186943 -1.462965 0
M  V30 10 S 4.293757 0.199585 -2.698460 0
M  V30 11 C 1.924647 0.578187 -1.326509 0
M  V30 12 C 1.684791 1.664172 -2.142118 0
M  V30 13 C 0.514373 2.399155 -1.970674 0
M  V30 14 C -0.445473 2.090167 -1.001159 0
M  V30 15 C -0.194432 1.003549 -0.192540 0
M  V30 16 C 0.968350 0.290593 -0.377020 0
M  V30 17 C -0.332338 -0.606197 2.600073 0
M  V30 18 C -1.121603 -1.258045 3.522375 0
M  V30 19 H -2.877167 -4.072085 3.965976 0
M  V30 20 H -1.634777 -3.797987 5.208174 0
M  V30 21 H -2.868996 -2.543371 4.959552 0
M  V30 22 H -1.017125 -4.369550 2.301255 0
M  V30 23 H 0.359902 -3.264958 0.679857 0
M  V30 24 H 3.788268 0.013725 -4.017174 0
M  V30 25 H 2.404918 1.931678 -2.902212 0
M  V30 26 H 0.289217 3.267492 -2.598614 0
M  V30 27 H -1.338567 2.687244 -0.903891 0
M  V30 28 H -0.930395 0.769703 0.530421 0
M  V30 29 H -0.110134 0.445724 2.666702 0
M  V30 30 H -1.520403 -0.641372 4.313716 0
M  V30 END ATOM
M  V30 BEGIN BOND
M  V30 1 1 1 2
M  V30 2 2 2 3
M  V30 3 1 3 4
M  V30 4 2 4 5
M  V30 5 1 5 6
M  V30 6 2 6 7
M  V30 7 1 7 8
M  V30 8 2 8 9
M  V30 9 1 9 10
M  V30 10 1 9 11
M  V30 11 2 11 12
M  V30 12 1 12 13
M  V30 13 2 13 14
M  V30 14 1 14 15
M  V30 15 2 15 16
M  V30 16 1 5 17
M  V30 17 2 17 18
M  V30 18 1 18 2
M  V30 19 1 16 6
M  V30 20 1 16 11
M  V30 21 1 1 19
M  V30 22 1 1 20
M  V30 23 1 1 21
M  V30 24 1 3 22
M  V30 25 1 4 23
M  V30 26 1 10 24
M  V30 27 1 12 25
M  V30 28 1 13 26
M  V30 29 1 14 27
M  V30 30 1 15 28
M  V30 31 1 17 29
M  V30 32 1 18 30
M  V30 END BOND
M  V30 END CTAB
M  END
>  <Dataset>  (65) 
ChEMBL_Kinases

>  <Ligand_Instance>  (65) 
nan

>  <PDB_ID>  (65) 
nan

>  <Standardized_SMILES>  (65) 
Cc1ccc(-c2nnc(S)c3ccccc23)cc1

>  <Name>  (65) 
nan

>  <Pocket>  (65) 
nan

>  <ATP_Site>  (65) 
nan

>  <Peripheral>  (65) 
nan

>  <Num_H_Atoms_ProtBoundConf>  (65) 
nan

>  <Num_Resolved_Atoms>  (65) 
nan

>  <Num_Not_Resolved_Atoms>  (65) 
nan

$$$$
CHEMBL1579328
     RDKit          3D

  0  0  0  0  0  0  0  0  0  0999 V3000
M  V30 BEGIN CTAB
M  V30 COUNTS 38 40 0 0 0
M  V30 BEGIN ATOM
M  V30 1 O -0.930555 -2.067776 -0.074879 0
M  V30 2 C -0.205904 -0.868952 0.280876 0
M  V30 3 C 0.603429 -1.335534 1.438867 0
M  V30 4 C 1.653284 -0.559407 1.907182 0
M  V30 5 C 2.441642 -0.953535 2.994602 0
M  V30 6 C 2.198288 -2.138865 3.643462 0
M  V30 7 C 1.162630 -2.929804 3.200131 0
M  V30 8 C 0.407420 -2.520196 2.134468 0
M  V30 9 C 0.630718 -0.610708 -0.890354 0
M  V30 10 C 1.067343 -1.670599 -1.708540 0
M  V30 11 C 1.848472 -1.550647 -2.821831 0
M  V30 12 C 2.261578 -0.303629 -3.205639 0
M  V30 13 C 1.881304 0.790074 -2.463430 0
M  V30 14 C 1.092693 0.615134 -1.347880 0
M  V30 15 C -1.303276 0.067200 0.600605 0
M  V30 16 C -1.009117 1.459703 0.980676 0
M  V30 17 C -2.146431 1.787476 1.977553 0
M  V30 18 C -2.230114 0.472429 2.720641 0
M  V30 19 N -2.088791 -0.500903 1.704317 0
M  V30 20 H -1.448200 -1.935487 -0.888907 0
M  V30 21 H 1.942947 0.369151 1.494526 0
M  V30 22 H 3.255781 -0.360084 3.367123 0
M  V30 23 H 2.815234 -2.434207 4.480612 0
M  V30 24 H 0.942928 -3.855367 3.676306 0
M  V30 25 H -0.415124 -3.132305 1.771888 0
M  V30 26 H 0.748063 -2.686016 -1.417851 0
M  V30 27 H 2.119123 -2.452952 -3.372077 0
M  V30 28 H 2.871667 -0.163105 -4.066946 0
M  V30 29 H 2.200665 1.793493 -2.755280 0
M  V30 30 H 0.828068 1.483081 -0.806050 0
M  V30 31 H -2.078904 0.129970 -0.214204 0
M  V30 32 H -0.039958 1.694957 1.406739 0
M  V30 33 H -1.190952 2.229240 0.178965 0
M  V30 34 H -3.084790 1.983746 1.418529 0
M  V30 35 H -1.880714 2.607573 2.653069 0
M  V30 36 H -1.355002 0.400850 3.399674 0
M  V30 37 H -3.194143 0.367891 3.266958 0
M  V30 38 H -2.896583 -1.043023 1.418279 0
M  V30 END ATOM
M  V30 BEGIN BOND
M  V30 1 1 1 2
M  V30 2 1 2 3
M  V30 3 2 3 4
M  V30 4 1 4 5
M  V30 5 2 5 6
M  V30 6 1 6 7
M  V30 7 2 7 8
M  V30 8 1 2 9
M  V30 9 2 9 10
M  V30 10 1 10 11
M  V30 11 2 11 12
M  V30 12 1 12 13
M  V30 13 2 13 14
M  V30 14 1 2 15
M  V30 15 1 15 16
M  V30 16 1 16 17
M  V30 17 1 17 18
M  V30 18 1 18 19
M  V30 19 1 8 3
M  V30 20 1 14 9
M  V30 21 1 19 15
M  V30 22 1 1 20
M  V30 23 1 4 21
M  V30 24 1 5 22
M  V30 25 1 6 23
M  V30 26 1 7 24
M  V30 27 1 8 25
M  V30 28 1 10 26
M  V30 29 1 11 27
M  V30 30 1 12 28
M  V30 31 1 13 29
M  V30 32 1 14 30
M  V30 33 1 15 31
M  V30 34 1 16 32
M  V30 35 1 16 33
M  V30 36 1 17 34
M  V30 37 1 17 35
M  V30 38 1 18 36
M  V30 39 1 18 37
M  V30 40 1 19 38
M  V30 END BOND
M  V30 END CTAB
M  END
>  <Dataset>  (66) 
ChEMBL_Kinases

>  <Ligand_Instance>  (66) 
nan

>  <PDB_ID>  (66) 
nan

>  <Standardized_SMILES>  (66) 
OC(c1ccccc1)(c1ccccc1)C1CCCN1

>  <Name>  (66) 
nan

>  <Pocket>  (66) 
nan

>  <ATP_Site>  (66) 
nan

>  <Peripheral>  (66) 
nan

>  <Num_H_Atoms_ProtBoundConf>  (66) 
nan

>  <Num_Resolved_Atoms>  (66) 
nan

>  <Num_Not_Resolved_Atoms>  (66) 
nan

$$$$
CHEMBL1579346
     RDKit          3D

  0  0  0  0  0  0  0  0  0  0999 V3000
M  V30 BEGIN CTAB
M  V30 COUNTS 51 54 0 0 0
M  V30 BEGIN ATOM
M  V30 1 C 1.496810 -5.260297 -1.169160 0
M  V30 2 C 1.611347 -5.428020 0.316603 0
M  V30 3 N 1.019670 -4.337378 1.065749 0
M  V30 4 C 1.686819 -3.232434 1.441746 0
M  V30 5 S 3.400259 -2.759688 1.177320 0
M  V30 6 C 3.741733 -1.142672 1.911565 0
M  V30 7 C 3.000875 -0.057857 1.217625 0
M  V30 8 O 1.817458 0.167541 1.628372 0
M  V30 9 N 3.534595 0.701036 0.164828 0
M  V30 10 C 2.463429 1.665746 -0.237293 0
M  V30 11 N 2.200037 2.697929 0.114325 0
M  V30 12 C 1.239911 3.530886 -0.270257 0
M  V30 13 C 0.932946 4.799161 0.179482 0
M  V30 14 C -0.121009 5.494799 -0.365211 0
M  V30 15 C -0.947527 5.011835 -1.380020 0
M  V30 16 O -2.020535 5.646984 -1.975594 0
M  V30 17 C -2.414950 6.947735 -1.582915 0
M  V30 18 C -0.634437 3.744706 -1.823720 0
M  V30 19 C 0.438234 3.065415 -1.252362 0
M  V30 20 S 1.127746 1.421268 -1.570553 0
M  V30 21 N 0.804068 -2.482155 2.099583 0
M  V30 22 C -0.393447 -3.084661 2.146000 0
M  V30 23 C -0.257395 -4.286288 1.477134 0
M  V30 24 C -1.365586 -5.083349 1.395864 0
M  V30 25 O -1.265927 -6.175161 0.795677 0
M  V30 26 N -2.493139 -4.638393 1.968624 0
M  V30 27 C -3.691948 -5.454922 1.906014 0
M  V30 28 C -2.593952 -3.449102 2.620202 0
M  V30 29 O -3.679660 -3.065388 3.147868 0
M  V30 30 N -1.526777 -2.620696 2.730345 0
M  V30 31 C -1.547457 -1.341457 3.405324 0
M  V30 32 H 2.468681 -5.440046 -1.687682 0
M  V30 33 H 0.793029 -5.999361 -1.627398 0
M  V30 34 H 1.180187 -4.233928 -1.429102 0
M  V30 35 H 2.691942 -5.527870 0.598928 0
M  V30 36 H 1.147860 -6.406059 0.626406 0
M  V30 37 H 4.835836 -0.988941 1.880642 0
M  V30 38 H 3.453193 -1.112299 2.995818 0
M  V30 39 H 4.480034 0.543266 -0.182939 0
M  V30 40 H 1.456420 5.338126 0.955768 0
M  V30 41 H -0.387214 6.509632 -0.023641 0
M  V30 42 H -2.304817 7.032562 -0.464980 0
M  V30 43 H -1.804841 7.746581 -2.056641 0
M  V30 44 H -3.486819 7.138027 -1.795001 0
M  V30 45 H -1.152040 3.184911 -2.605827 0
M  V30 46 H -3.774896 -6.160340 2.751854 0
M  V30 47 H -4.566913 -4.763704 1.842708 0
M  V30 48 H -3.677848 -6.027345 0.954235 0
M  V30 49 H -1.598402 -1.454109 4.508354 0
M  V30 50 H -2.417396 -0.719388 3.111639 0
M  V30 51 H -0.650484 -0.781543 3.088353 0
M  V30 END ATOM
M  V30 BEGIN BOND
M  V30 1 1 1 2
M  V30 2 1 2 3
M  V30 3 1 3 4
M  V30 4 1 4 5
M  V30 5 1 5 6
M  V30 6 1 6 7
M  V30 7 2 7 8
M  V30 8 1 7 9
M  V30 9 1 9 10
M  V30 10 2 10 11
M  V30 11 1 11 12
M  V30 12 2 12 13
M  V30 13 1 13 14
M  V30 14 2 14 15
M  V30 15 1 15 16
M  V30 16 1 16 17
M  V30 17 1 15 18
M  V30 18 2 18 19
M  V30 19 1 19 20
M  V30 20 2 4 21
M  V30 21 1 21 22
M  V30 22 2 22 23
M  V30 23 1 23 24
M  V30 24 2 24 25
M  V30 25 1 24 26
M  V30 26 1 26 27
M  V30 27 1 26 28
M  V30 28 2 28 29
M  V30 29 1 28 30
M  V30 30 1 30 31
M  V30 31 1 23 3
M  V30 32 1 20 10
M  V30 33 1 30 22
M  V30 34 1 19 12
M  V30 35 1 1 32
M  V30 36 1 1 33
M  V30 37 1 1 34
M  V30 38 1 2 35
M  V30 39 1 2 36
M  V30 40 1 6 37
M  V30 41 1 6 38
M  V30 42 1 9 39
M  V30 43 1 13 40
M  V30 44 1 14 41
M  V30 45 1 17 42
M  V30 46 1 17 43
M  V30 47 1 17 44
M  V30 48 1 18 45
M  V30 49 1 27 46
M  V30 50 1 27 47
M  V30 51 1 27 48
M  V30 52 1 31 49
M  V30 53 1 31 50
M  V30 54 1 31 51
M  V30 END BOND
M  V30 END CTAB
M  END
>  <Dataset>  (67) 
ChEMBL_Kinases

>  <Ligand_Instance>  (67) 
nan

>  <PDB_ID>  (67) 
nan

>  <Standardized_SMILES>  (67) 
CCn1c(SCC(=O)Nc2nc3ccc(OC)cc3s2)nc2c1c(=O)n(C)c(=O)n2C

>  <Name>  (67) 
nan

>  <Pocket>  (67) 
nan

>  <ATP_Site>  (67) 
nan

>  <Peripheral>  (67) 
nan

>  <Num_H_Atoms_ProtBoundConf>  (67) 
nan

>  <Num_Resolved_Atoms>  (67) 
nan

>  <Num_Not_Resolved_Atoms>  (67) 
nan

$$$$
CHEMBL1579427
     RDKit          3D

  0  0  0  0  0  0  0  0  0  0999 V3000
M  V30 BEGIN CTAB
M  V30 COUNTS 34 36 0 0 0
M  V30 BEGIN ATOM
M  V30 1 C 2.268461 -5.556180 2.798110 0
M  V30 2 O 2.102083 -4.394807 2.206103 0
M  V30 3 C 1.947678 -3.278513 1.646800 0
M  V30 4 O 2.565689 -2.694995 2.586470 0
M  V30 5 C 1.361634 -2.670988 0.457248 0
M  V30 6 C 0.690601 -3.349449 -0.551375 0
M  V30 7 C 0.196246 -2.615781 -1.611425 0
M  V30 8 Br -0.705285 -3.596586 -2.948610 0
M  V30 9 C 0.383101 -1.251648 -1.632581 0
M  V30 10 O -0.083224 -0.653193 -2.608482 0
M  V30 11 N 1.024909 -0.575489 -0.674893 0
M  V30 12 C 1.218244 0.862391 -0.703407 0
M  V30 13 C 0.049571 1.472669 -0.015751 0
M  V30 14 C 0.124526 1.682635 1.344743 0
M  V30 15 C -0.908596 2.248137 2.098865 0
M  V30 16 C -2.062096 2.610093 1.421572 0
M  V30 17 C -2.165696 2.411872 0.059798 0
M  V30 18 C -1.118763 1.850443 -0.638813 0
M  V30 19 O -3.411196 2.849197 -0.409210 0
M  V30 20 C -4.143491 3.325183 0.705171 0
M  V30 21 O -3.268785 3.185286 1.821258 0
M  V30 22 C 1.513854 -1.290240 0.370753 0
M  V30 23 H 1.330148 -6.194588 2.671407 0
M  V30 24 H 3.100451 -6.220642 2.428830 0
M  V30 25 H 2.357534 -5.497431 3.927421 0
M  V30 26 H 0.612927 -4.421243 -0.412891 0
M  V30 27 H 1.335058 1.233106 -1.739223 0
M  V30 28 H 2.127538 1.093156 -0.119731 0
M  V30 29 H 1.005940 1.414481 1.909857 0
M  V30 30 H -0.840040 2.407957 3.161683 0
M  V30 31 H -1.198029 1.694717 -1.703659 0
M  V30 32 H -4.408438 4.386165 0.537843 0
M  V30 33 H -5.042389 2.710424 0.925908 0
M  V30 34 H 2.038227 -0.719624 1.148453 0
M  V30 END ATOM
M  V30 BEGIN BOND
M  V30 1 1 1 2
M  V30 2 1 2 3
M  V30 3 2 3 4
M  V30 4 1 3 5
M  V30 5 1 5 6
M  V30 6 2 6 7
M  V30 7 1 7 8
M  V30 8 1 7 9
M  V30 9 2 9 10
M  V30 10 1 9 11
M  V30 11 1 11 12
M  V30 12 1 12 13
M  V30 13 2 13 14
M  V30 14 1 14 15
M  V30 15 2 15 16
M  V30 16 1 16 17
M  V30 17 2 17 18
M  V30 18 1 17 19
M  V30 19 1 19 20
M  V30 20 1 20 21
M  V30 21 1 11 22
M  V30 22 2 22 5
M  V30 23 1 18 13
M  V30 24 1 21 16
M  V30 25 1 1 23
M  V30 26 1 1 24
M  V30 27 1 1 25
M  V30 28 1 6 26
M  V30 29 1 12 27
M  V30 30 1 12 28
M  V30 31 1 14 29
M  V30 32 1 15 30
M  V30 33 1 18 31
M  V30 34 1 20 32
M  V30 35 1 20 33
M  V30 36 1 22 34
M  V30 END BOND
M  V30 END CTAB
M  END
>  <Dataset>  (68) 
ChEMBL_Kinases

>  <Ligand_Instance>  (68) 
nan

>  <PDB_ID>  (68) 
nan

>  <Standardized_SMILES>  (68) 
COC(=O)c1cc(Br)c(=O)n(Cc2ccc3c(c2)OCO3)c1

>  <Name>  (68) 
nan

>  <Pocket>  (68) 
nan

>  <ATP_Site>  (68) 
nan

>  <Peripheral>  (68) 
nan

>  <Num_H_Atoms_ProtBoundConf>  (68) 
nan

>  <Num_Resolved_Atoms>  (68) 
nan

>  <Num_Not_Resolved_Atoms>  (68) 
nan

$$$$
CHEMBL1579483
     RDKit          3D

  0  0  0  0  0  0  0  0  0  0999 V3000
M  V30 BEGIN CTAB
M  V30 COUNTS 50 52 0 0 0
M  V30 BEGIN ATOM
M  V30 1 C 3.222295 -4.011259 -3.499846 0
M  V30 2 O 4.223869 -3.457025 -2.670480 0
M  V30 3 C 4.006608 -2.190804 -2.144706 0
M  V30 4 C 5.044719 -1.732736 -1.344560 0
M  V30 5 C 4.953251 -0.494975 -0.764605 0
M  V30 6 C 3.856275 0.305061 -0.956632 0
M  V30 7 C 2.822636 -0.171580 -1.763779 0
M  V30 8 C 1.661590 0.683907 -1.963477 0
M  V30 9 N 1.511034 1.857179 -1.449719 0
M  V30 10 O 0.292442 2.395904 -1.841766 0
M  V30 11 C -0.557572 1.342777 -2.229163 0
M  V30 12 C -1.188137 0.695925 -1.070823 0
M  V30 13 O -1.956950 -0.253924 -1.326234 0
M  V30 14 N -1.001128 1.051724 0.282692 0
M  V30 15 C -1.546036 0.508007 1.452774 0
M  V30 16 C -1.201621 1.050214 2.672526 0
M  V30 17 C -1.691767 0.572110 3.856089 0
M  V30 18 O -1.333419 1.130965 5.070684 0
M  V30 19 C -0.443052 2.224377 5.163913 0
M  V30 20 C -2.564851 -0.486847 3.903269 0
M  V30 21 O -3.051877 -0.960617 5.092782 0
M  V30 22 C -2.356651 -1.981584 5.784404 0
M  V30 23 C -2.931067 -1.053894 2.701740 0
M  V30 24 O -3.813837 -2.125736 2.740147 0
M  V30 25 C -4.227930 -2.748357 1.534195 0
M  V30 26 C -2.421565 -0.550296 1.535496 0
M  V30 27 C 0.459640 0.347320 -2.789916 0
M  V30 28 C 2.888516 -1.413475 -2.359807 0
M  V30 29 H 2.242990 -4.011996 -2.985598 0
M  V30 30 H 3.507527 -5.034475 -3.839104 0
M  V30 31 H 3.162217 -3.379599 -4.413260 0
M  V30 32 H 5.951609 -2.301619 -1.138989 0
M  V30 33 H 5.769922 -0.124615 -0.130018 0
M  V30 34 H 3.813583 1.279120 -0.484370 0
M  V30 35 H -1.266373 1.679489 -2.993731 0
M  V30 36 H -0.334226 1.862173 0.355343 0
M  V30 37 H -0.512121 1.891442 2.689996 0
M  V30 38 H 0.587655 1.819918 5.079646 0
M  V30 39 H -0.622351 2.653503 6.189717 0
M  V30 40 H -0.670467 2.974547 4.404431 0
M  V30 41 H -2.856484 -2.970736 5.652609 0
M  V30 42 H -2.353411 -1.728511 6.871436 0
M  V30 43 H -1.307281 -2.072138 5.444067 0
M  V30 44 H -4.682944 -1.952480 0.910049 0
M  V30 45 H -3.334242 -3.151507 0.982469 0
M  V30 46 H -4.961903 -3.535309 1.735876 0
M  V30 47 H -2.749213 -1.038479 0.652890 0
M  V30 48 H 0.621306 0.477463 -3.867795 0
M  V30 49 H 0.122565 -0.698787 -2.578456 0
M  V30 50 H 2.117748 -1.811199 -2.983142 0
M  V30 END ATOM
M  V30 BEGIN BOND
M  V30 1 1 1 2
M  V30 2 1 2 3
M  V30 3 2 3 4
M  V30 4 1 4 5
M  V30 5 2 5 6
M  V30 6 1 6 7
M  V30 7 1 7 8
M  V30 8 2 8 9
M  V30 9 1 9 10
M  V30 10 1 10 11
M  V30 11 1 11 12
M  V30 12 2 12 13
M  V30 13 1 12 14
M  V30 14 1 14 15
M  V30 15 2 15 16
M  V30 16 1 16 17
M  V30 17 1 17 18
M  V30 18 1 18 19
M  V30 19 2 17 20
M  V30 20 1 20 21
M  V30 21 1 21 22
M  V30 22 1 20 23
M  V30 23 1 23 24
M  V30 24 1 24 25
M  V30 25 2 23 26
M  V30 26 1 11 27
M  V30 27 2 7 28
M  V30 28 1 28 3
M  V30 29 1 27 8
M  V30 30 1 26 15
M  V30 31 1 1 29
M  V30 32 1 1 30
M  V30 33 1 1 31
M  V30 34 1 4 32
M  V30 35 1 5 33
M  V30 36 1 6 34
M  V30 37 1 11 35
M  V30 38 1 14 36
M  V30 39 1 16 37
M  V30 40 1 19 38
M  V30 41 1 19 39
M  V30 42 1 19 40
M  V30 43 1 22 41
M  V30 44 1 22 42
M  V30 45 1 22 43
M  V30 46 1 25 44
M  V30 47 1 25 45
M  V30 48 1 25 46
M  V30 49 1 26 47
M  V30 50 1 27 48
M  V30 51 1 27 49
M  V30 52 1 28 50
M  V30 END BOND
M  V30 END CTAB
M  END
>  <Dataset>  (69) 
ChEMBL_Kinases

>  <Ligand_Instance>  (69) 
nan

>  <PDB_ID>  (69) 
nan

>  <Standardized_SMILES>  (69) 
COc1cccc(C2=NOC(C(=O)Nc3cc(OC)c(OC)c(OC)c3)C2)c1

>  <Name>  (69) 
nan

>  <Pocket>  (69) 
nan

>  <ATP_Site>  (69) 
nan

>  <Peripheral>  (69) 
nan

>  <Num_H_Atoms_ProtBoundConf>  (69) 
nan

>  <Num_Resolved_Atoms>  (69) 
nan

>  <Num_Not_Resolved_Atoms>  (69) 
nan

$$$$
CHEMBL1579504
     RDKit          3D

  0  0  0  0  0  0  0  0  0  0999 V3000
M  V30 BEGIN CTAB
M  V30 COUNTS 51 53 0 0 0
M  V30 BEGIN ATOM
M  V30 1 C 4.354776 -5.560059 2.390231 0
M  V30 2 C 3.361789 -4.519596 2.020238 0
M  V30 3 C 2.040074 -4.882967 2.242309 0
M  V30 4 C 1.028520 -4.015499 1.944343 0
M  V30 5 C 1.356808 -2.777227 1.420223 0
M  V30 6 C 2.646923 -2.385626 1.188351 0
M  V30 7 C 3.065251 -1.103805 0.641669 0
M  V30 8 O 4.272749 -0.800839 0.447251 0
M  V30 9 N 2.114035 -0.095914 0.287087 0
M  V30 10 C 2.524297 1.190830 -0.261322 0
M  V30 11 C 2.048516 2.325863 0.623255 0
M  V30 12 C 0.716011 2.785560 0.123551 0
M  V30 13 N -0.131401 1.735893 -0.348476 0
M  V30 14 C -1.325550 1.300805 0.289037 0
M  V30 15 O -1.568875 1.955160 1.346162 0
M  V30 16 N -2.070996 0.240479 -0.297334 0
M  V30 17 C -3.250491 -0.075673 0.473955 0
M  V30 18 C -3.008503 -1.044838 1.439343 0
M  V30 19 C -4.020517 -1.479199 2.278774 0
M  V30 20 C -5.277111 -0.905093 2.111058 0
M  V30 21 C -5.520918 0.052842 1.158527 0
M  V30 22 C -4.510589 0.489271 0.317478 0
M  V30 23 C -4.630633 1.514663 -0.753139 0
M  V30 24 C 0.453504 1.236316 -1.549062 0
M  V30 25 C 1.938156 1.425773 -1.624509 0
M  V30 26 C 3.653012 -3.292903 1.502923 0
M  V30 27 H 4.372791 -6.346846 1.625749 0
M  V30 28 H 5.363215 -5.114561 2.536189 0
M  V30 29 H 4.071496 -6.072452 3.348929 0
M  V30 30 H 1.717302 -5.832752 2.648199 0
M  V30 31 H -0.039911 -4.223869 2.088839 0
M  V30 32 H 0.574330 -2.081761 1.179899 0
M  V30 33 H 1.109873 -0.268053 0.416234 0
M  V30 34 H 3.633271 1.169017 -0.320202 0
M  V30 35 H 2.768204 3.146888 0.527188 0
M  V30 36 H 1.923684 1.998910 1.677979 0
M  V30 37 H 0.190454 3.274536 0.992804 0
M  V30 38 H 0.869442 3.599978 -0.603696 0
M  V30 39 H -1.706200 -0.178421 -1.180463 0
M  V30 40 H -2.050921 -1.517083 1.605091 0
M  V30 41 H -3.922133 -2.227643 3.056329 0
M  V30 42 H -6.112319 -1.214347 2.750425 0
M  V30 43 H -6.476610 0.517543 1.000396 0
M  V30 44 H -3.722279 2.116159 -0.802758 0
M  V30 45 H -5.512098 2.161847 -0.629371 0
M  V30 46 H -4.688028 0.938100 -1.705730 0
M  V30 47 H 0.320329 0.114729 -1.517862 0
M  V30 48 H -0.037139 1.572736 -2.478251 0
M  V30 49 H 2.233087 2.438731 -1.947897 0
M  V30 50 H 2.393401 0.667987 -2.312094 0
M  V30 51 H 4.715624 -3.080293 1.356810 0
M  V30 END ATOM
M  V30 BEGIN BOND
M  V30 1 1 1 2
M  V30 2 2 2 3
M  V30 3 1 3 4
M  V30 4 2 4 5
M  V30 5 1 5 6
M  V30 6 1 6 7
M  V30 7 2 7 8
M  V30 8 1 7 9
M  V30 9 1 9 10
M  V30 10 1 10 11
M  V30 11 1 11 12
M  V30 12 1 12 13
M  V30 13 1 13 14
M  V30 14 2 14 15
M  V30 15 1 14 16
M  V30 16 1 16 17
M  V30 17 2 17 18
M  V30 18 1 18 19
M  V30 19 2 19 20
M  V30 20 1 20 21
M  V30 21 2 21 22
M  V30 22 1 22 23
M  V30 23 1 13 24
M  V30 24 1 24 25
M  V30 25 2 6 26
M  V30 26 1 26 2
M  V30 27 1 25 10
M  V30 28 1 22 17
M  V30 29 1 1 27
M  V30 30 1 1 28
M  V30 31 1 1 29
M  V30 32 1 3 30
M  V30 33 1 4 31
M  V30 34 1 5 32
M  V30 35 1 9 33
M  V30 36 1 10 34
M  V30 37 1 11 35
M  V30 38 1 11 36
M  V30 39 1 12 37
M  V30 40 1 12 38
M  V30 41 1 16 39
M  V30 42 1 18 40
M  V30 43 1 19 41
M  V30 44 1 20 42
M  V30 45 1 21 43
M  V30 46 1 23 44
M  V30 47 1 23 45
M  V30 48 1 23 46
M  V30 49 1 24 47
M  V30 50 1 24 48
M  V30 51 1 25 49
M  V30 52 1 25 50
M  V30 53 1 26 51
M  V30 END BOND
M  V30 END CTAB
M  END
>  <Dataset>  (70) 
ChEMBL_Kinases

>  <Ligand_Instance>  (70) 
nan

>  <PDB_ID>  (70) 
nan

>  <Standardized_SMILES>  (70) 
Cc1cccc(C(=O)NC2CCN(C(=O)Nc3ccccc3C)CC2)c1

>  <Name>  (70) 
nan

>  <Pocket>  (70) 
nan

>  <ATP_Site>  (70) 
nan

>  <Peripheral>  (70) 
nan

>  <Num_H_Atoms_ProtBoundConf>  (70) 
nan

>  <Num_Resolved_Atoms>  (70) 
nan

>  <Num_Not_Resolved_Atoms>  (70) 
nan

$$$$
CHEMBL1579643
     RDKit          3D

  0  0  0  0  0  0  0  0  0  0999 V3000
M  V30 BEGIN CTAB
M  V30 COUNTS 45 47 0 0 0
M  V30 BEGIN ATOM
M  V30 1 C 0.605851 -2.265833 2.115030 0
M  V30 2 N 1.826389 -1.585863 2.391277 0
M  V30 3 C 3.059897 -1.903999 1.975664 0
M  V30 4 C 3.546585 -2.995026 1.098637 0
M  V30 5 O 3.732833 -2.658079 -0.204632 0
M  V30 6 C 3.040022 -2.203197 -1.242429 0
M  V30 7 C 1.761829 -1.845627 -1.501494 0
M  V30 8 C 1.252136 -1.385978 -2.694629 0
M  V30 9 C 2.155714 -1.284388 -3.729834 0
M  V30 10 C 3.490013 -1.621652 -3.583408 0
M  V30 11 C 3.920488 -2.080125 -2.333789 0
M  V30 12 N 3.864519 -0.953942 2.539088 0
M  V30 13 N 3.140034 -0.106753 3.258550 0
M  V30 14 C 1.839323 -0.502414 3.169486 0
M  V30 15 S 0.628812 0.468549 4.042790 0
M  V30 16 C 0.005683 1.808832 3.005032 0
M  V30 17 C -0.799514 1.369063 1.838583 0
M  V30 18 N -1.989893 0.624946 2.145851 0
M  V30 19 C -3.003610 1.380064 2.798374 0
M  V30 20 C -3.671988 2.235591 1.753114 0
M  V30 21 O -4.445555 1.400085 0.977655 0
M  V30 22 C -3.839286 0.280818 0.509274 0
M  V30 23 C -2.504928 -0.058727 1.001169 0
M  V30 24 H 0.219278 -2.712439 3.080270 0
M  V30 25 H -0.183602 -1.585354 1.788909 0
M  V30 26 H 0.671994 -3.092815 1.384997 0
M  V30 27 H 2.862967 -3.868808 1.264760 0
M  V30 28 H 4.563790 -3.283697 1.516572 0
M  V30 29 H 1.126646 -1.950162 -0.663411 0
M  V30 30 H 0.201181 -1.140612 -2.740922 0
M  V30 31 H 1.758758 -0.923070 -4.670675 0
M  V30 32 H 4.079779 -1.495101 -4.467607 0
M  V30 33 H 4.985469 -2.296511 -2.396691 0
M  V30 34 H -0.459563 2.621084 3.598906 0
M  V30 35 H 0.926520 2.302837 2.573521 0
M  V30 36 H -1.042464 2.232799 1.210882 0
M  V30 37 H -0.127365 0.730123 1.204634 0
M  V30 38 H -2.657675 1.939526 3.673416 0
M  V30 39 H -3.770091 0.668985 3.178300 0
M  V30 40 H -4.355298 2.941361 2.272274 0
M  V30 41 H -2.985917 2.765973 1.079638 0
M  V30 42 H -3.818139 0.364464 -0.619353 0
M  V30 43 H -4.571092 -0.564416 0.671010 0
M  V30 44 H -2.482545 -1.158103 1.263466 0
M  V30 45 H -1.729153 0.014588 0.187895 0
M  V30 END ATOM
M  V30 BEGIN BOND
M  V30 1 1 1 2
M  V30 2 1 2 3
M  V30 3 1 3 4
M  V30 4 1 4 5
M  V30 5 1 5 6
M  V30 6 2 6 7
M  V30 7 1 7 8
M  V30 8 2 8 9
M  V30 9 1 9 10
M  V30 10 2 10 11
M  V30 11 2 3 12
M  V30 12 1 12 13
M  V30 13 2 13 14
M  V30 14 1 14 15
M  V30 15 1 15 16
M  V30 16 1 16 17
M  V30 17 1 17 18
M  V30 18 1 18 19
M  V30 19 1 19 20
M  V30 20 1 20 21
M  V30 21 1 21 22
M  V30 22 1 22 23
M  V30 23 1 14 2
M  V30 24 1 23 18
M  V30 25 1 11 6
M  V30 26 1 1 24
M  V30 27 1 1 25
M  V30 28 1 1 26
M  V30 29 1 4 27
M  V30 30 1 4 28
M  V30 31 1 7 29
M  V30 32 1 8 30
M  V30 33 1 9 31
M  V30 34 1 10 32
M  V30 35 1 11 33
M  V30 36 1 16 34
M  V30 37 1 16 35
M  V30 38 1 17 36
M  V30 39 1 17 37
M  V30 40 1 19 38
M  V30 41 1 19 39
M  V30 42 1 20 40
M  V30 43 1 20 41
M  V30 44 1 22 42
M  V30 45 1 22 43
M  V30 46 1 23 44
M  V30 47 1 23 45
M  V30 END BOND
M  V30 END CTAB
M  END
>  <Dataset>  (71) 
ChEMBL_Kinases

>  <Ligand_Instance>  (71) 
nan

>  <PDB_ID>  (71) 
nan

>  <Standardized_SMILES>  (71) 
Cn1c(COc2ccccc2)nnc1SCCN1CCOCC1

>  <Name>  (71) 
nan

>  <Pocket>  (71) 
nan

>  <ATP_Site>  (71) 
nan

>  <Peripheral>  (71) 
nan

>  <Num_H_Atoms_ProtBoundConf>  (71) 
nan

>  <Num_Resolved_Atoms>  (71) 
nan

>  <Num_Not_Resolved_Atoms>  (71) 
nan

$$$$
CHEMBL1580250
     RDKit          3D

  0  0  0  0  0  0  0  0  0  0999 V3000
M  V30 BEGIN CTAB
M  V30 COUNTS 52 55 0 0 0
M  V30 BEGIN ATOM
M  V30 1 C -2.116703 -1.271519 3.338547 0
M  V30 2 C -1.347246 -2.591983 3.226933 0
M  V30 3 N -0.942280 -2.839843 1.868920 0
M  V30 4 C 0.230676 -2.448408 1.298670 0
M  V30 5 S 1.547089 -1.542109 2.136412 0
M  V30 6 C 2.891176 -1.265676 0.918409 0
M  V30 7 C 2.313705 -0.318730 -0.088253 0
M  V30 8 O 1.660728 -0.779789 -1.052714 0
M  V30 9 N 2.565394 1.081863 0.144983 0
M  V30 10 C 3.335112 1.591112 1.260207 0
M  V30 11 C 3.615901 3.069005 0.957552 0
M  V30 12 C 2.276995 3.713902 0.848257 0
M  V30 13 C 1.869100 4.794757 1.612479 0
M  V30 14 C 0.627810 5.368450 1.488985 0
M  V30 15 C -0.216032 4.814017 0.553223 0
M  V30 16 C 0.131078 3.740441 -0.235894 0
M  V30 17 C 1.383397 3.183935 -0.091121 0
M  V30 18 C 1.981076 2.016432 -0.831997 0
M  V30 19 N 0.235296 -2.868104 0.003257 0
M  V30 20 C -0.928923 -3.509533 -0.204745 0
M  V30 21 C -1.692181 -3.508657 0.952023 0
M  V30 22 C -2.934765 -4.105340 1.012817 0
M  V30 23 O -3.627626 -4.105561 2.059875 0
M  V30 24 N -3.342114 -4.687398 -0.145029 0
M  V30 25 C -4.641988 -5.341305 -0.172859 0
M  V30 26 C -2.601207 -4.688599 -1.270480 0
M  V30 27 O -3.014819 -5.238397 -2.321983 0
M  V30 28 N -1.392966 -4.104985 -1.319021 0
M  V30 29 C -0.618440 -4.121092 -2.532026 0
M  V30 30 H -3.044562 -1.413466 3.931056 0
M  V30 31 H -2.327903 -0.831341 2.330083 0
M  V30 32 H -1.530231 -0.498214 3.901399 0
M  V30 33 H -0.447205 -2.472675 3.867476 0
M  V30 34 H -1.933293 -3.425682 3.683491 0
M  V30 35 H 3.808714 -0.919325 1.384715 0
M  V30 36 H 3.043742 -2.246142 0.396633 0
M  V30 37 H 2.694973 1.549226 2.151525 0
M  V30 38 H 4.285642 1.047074 1.435572 0
M  V30 39 H 4.259262 3.529737 1.704358 0
M  V30 40 H 4.079970 3.099592 -0.073635 0
M  V30 41 H 2.565908 5.201806 2.339183 0
M  V30 42 H 0.327708 6.214685 2.097753 0
M  V30 43 H -1.218338 5.200292 0.384838 0
M  V30 44 H -0.473348 3.256557 -0.983466 0
M  V30 45 H 1.214477 1.515806 -1.447864 0
M  V30 46 H 2.799591 2.320234 -1.503115 0
M  V30 47 H -5.377497 -4.849388 -0.810685 0
M  V30 48 H -4.997789 -5.505944 0.871392 0
M  V30 49 H -4.494249 -6.383945 -0.581072 0
M  V30 50 H -0.026550 -3.172047 -2.572836 0
M  V30 51 H 0.136044 -4.946957 -2.487215 0
M  V30 52 H -1.227969 -4.203312 -3.451324 0
M  V30 END ATOM
M  V30 BEGIN BOND
M  V30 1 1 1 2
M  V30 2 1 2 3
M  V30 3 1 3 4
M  V30 4 1 4 5
M  V30 5 1 5 6
M  V30 6 1 6 7
M  V30 7 2 7 8
M  V30 8 1 7 9
M  V30 9 1 9 10
M  V30 10 1 10 11
M  V30 11 1 11 12
M  V30 12 2 12 13
M  V30 13 1 13 14
M  V30 14 2 14 15
M  V30 15 1 15 16
M  V30 16 2 16 17
M  V30 17 1 17 18
M  V30 18 2 4 19
M  V30 19 1 19 20
M  V30 20 2 20 21
M  V30 21 1 21 22
M  V30 22 2 22 23
M  V30 23 1 22 24
M  V30 24 1 24 25
M  V30 25 1 24 26
M  V30 26 2 26 27
M  V30 27 1 26 28
M  V30 28 1 28 29
M  V30 29 1 21 3
M  V30 30 1 18 9
M  V30 31 1 28 20
M  V30 32 1 17 12
M  V30 33 1 1 30
M  V30 34 1 1 31
M  V30 35 1 1 32
M  V30 36 1 2 33
M  V30 37 1 2 34
M  V30 38 1 6 35
M  V30 39 1 6 36
M  V30 40 1 10 37
M  V30 41 1 10 38
M  V30 42 1 11 39
M  V30 43 1 11 40
M  V30 44 1 13 41
M  V30 45 1 14 42
M  V30 46 1 15 43
M  V30 47 1 16 44
M  V30 48 1 18 45
M  V30 49 1 18 46
M  V30 50 1 25 47
M  V30 51 1 25 48
M  V30 52 1 25 49
M  V30 53 1 29 50
M  V30 54 1 29 51
M  V30 55 1 29 52
M  V30 END BOND
M  V30 END CTAB
M  END
>  <Dataset>  (72) 
ChEMBL_Kinases

>  <Ligand_Instance>  (72) 
nan

>  <PDB_ID>  (72) 
nan

>  <Standardized_SMILES>  (72) 
CCn1c(SCC(=O)N2CCc3ccccc3C2)nc2c1c(=O)n(C)c(=O)n2C

>  <Name>  (72) 
nan

>  <Pocket>  (72) 
nan

>  <ATP_Site>  (72) 
nan

>  <Peripheral>  (72) 
nan

>  <Num_H_Atoms_ProtBoundConf>  (72) 
nan

>  <Num_Resolved_Atoms>  (72) 
nan

>  <Num_Not_Resolved_Atoms>  (72) 
nan

$$$$
CHEMBL1580253
     RDKit          3D

  0  0  0  0  0  0  0  0  0  0999 V3000
M  V30 BEGIN CTAB
M  V30 COUNTS 51 54 0 0 0
M  V30 BEGIN ATOM
M  V30 1 C 4.101775 -6.541173 2.344011 0
M  V30 2 C 3.757559 -5.118252 2.124410 0
M  V30 3 C 3.958589 -4.019936 2.934285 0
M  V30 4 C 3.592640 -2.732154 2.619783 0
M  V30 5 O 3.885037 -1.905552 3.525835 0
M  V30 6 N 2.989866 -2.471137 1.445384 0
M  V30 7 N 2.595659 -1.315862 1.024230 0
M  V30 8 C 2.070368 -1.063212 0.009284 0
M  V30 9 N 1.522937 0.008710 -0.767714 0
M  V30 10 C 0.921794 -0.126320 -2.065512 0
M  V30 11 C 0.814318 1.230492 -2.728759 0
M  V30 12 C 0.042403 2.197106 -1.855002 0
M  V30 13 C 0.472147 2.223139 -0.430718 0
M  V30 14 C -0.681371 2.030093 0.442934 0
M  V30 15 O -1.743494 1.888075 -0.201255 0
M  V30 16 N -0.740806 1.987099 1.839325 0
M  V30 17 C -1.779345 1.797672 2.798627 0
M  V30 18 C -2.498926 0.517920 2.834149 0
M  V30 19 C -3.226174 0.025890 1.685137 0
M  V30 20 C -4.527410 0.537698 1.599268 0
M  V30 21 C -5.415192 0.185328 0.603669 0
M  V30 22 C -5.027696 -0.715648 -0.370414 0
M  V30 23 C -3.756891 -1.241806 -0.321712 0
M  V30 24 C -2.884259 -0.884205 0.671858 0
M  V30 25 C 1.621144 1.295924 -0.136637 0
M  V30 26 S 1.980487 -2.787518 -0.787390 0
M  V30 27 C 2.795257 -3.548700 0.656409 0
M  V30 28 N 3.143948 -4.814382 0.942409 0
M  V30 29 H 4.831287 -6.674266 3.159708 0
M  V30 30 H 3.210211 -7.174417 2.547831 0
M  V30 31 H 4.523738 -6.930146 1.370706 0
M  V30 32 H 4.455194 -4.297484 3.879562 0
M  V30 33 H -0.083722 -0.559966 -2.027885 0
M  V30 34 H 1.546511 -0.763588 -2.718743 0
M  V30 35 H 1.790475 1.655938 -3.030057 0
M  V30 36 H 0.221104 1.095070 -3.658761 0
M  V30 37 H -1.031214 1.924016 -1.973566 0
M  V30 38 H 0.144560 3.195278 -2.328868 0
M  V30 39 H 0.869089 3.258121 -0.205587 0
M  V30 40 H 0.267713 2.140264 2.174956 0
M  V30 41 H -1.278699 1.898064 3.810081 0
M  V30 42 H -2.459186 2.694931 2.796366 0
M  V30 43 H -3.163613 0.431426 3.747606 0
M  V30 44 H -1.715644 -0.283378 3.057899 0
M  V30 45 H -4.957990 1.246235 2.291267 0
M  V30 46 H -6.411580 0.558234 0.512506 0
M  V30 47 H -5.632082 -1.068924 -1.199225 0
M  V30 48 H -3.386975 -1.948457 -1.046547 0
M  V30 49 H -1.849408 -1.233520 0.817134 0
M  V30 50 H 2.521318 1.785092 -0.616271 0
M  V30 51 H 1.852250 1.285475 0.928654 0
M  V30 END ATOM
M  V30 BEGIN BOND
M  V30 1 1 1 2
M  V30 2 2 2 3
M  V30 3 1 3 4
M  V30 4 2 4 5
M  V30 5 1 4 6
M  V30 6 1 6 7
M  V30 7 2 7 8
M  V30 8 1 8 9
M  V30 9 1 9 10
M  V30 10 1 10 11
M  V30 11 1 11 12
M  V30 12 1 12 13
M  V30 13 1 13 14
M  V30 14 2 14 15
M  V30 15 1 14 16
M  V30 16 1 16 17
M  V30 17 1 17 18
M  V30 18 1 18 19
M  V30 19 2 19 20
M  V30 20 1 20 21
M  V30 21 2 21 22
M  V30 22 1 22 23
M  V30 23 2 23 24
M  V30 24 1 13 25
M  V30 25 1 8 26
M  V30 26 1 26 27
M  V30 27 2 27 28
M  V30 28 1 28 2
M  V30 29 1 27 6
M  V30 30 1 25 9
M  V30 31 1 24 19
M  V30 32 1 1 29
M  V30 33 1 1 30
M  V30 34 1 1 31
M  V30 35 1 3 32
M  V30 36 1 10 33
M  V30 37 1 10 34
M  V30 38 1 11 35
M  V30 39 1 11 36
M  V30 40 1 12 37
M  V30 41 1 12 38
M  V30 42 1 13 39
M  V30 43 1 16 40
M  V30 44 1 17 41
M  V30 45 1 17 42
M  V30 46 1 18 43
M  V30 47 1 18 44
M  V30 48 1 20 45
M  V30 49 1 21 46
M  V30 50 1 22 47
M  V30 51 1 23 48
M  V30 52 1 24 49
M  V30 53 1 25 50
M  V30 54 1 25 51
M  V30 END BOND
M  V30 END CTAB
M  END
>  <Dataset>  (73) 
ChEMBL_Kinases

>  <Ligand_Instance>  (73) 
nan

>  <PDB_ID>  (73) 
nan

>  <Standardized_SMILES>  (73) 
Cc1cc(=O)n2nc(N3CCCC(C(=O)NCCc4ccccc4)C3)sc2n1

>  <Name>  (73) 
nan

>  <Pocket>  (73) 
nan

>  <ATP_Site>  (73) 
nan

>  <Peripheral>  (73) 
nan

>  <Num_H_Atoms_ProtBoundConf>  (73) 
nan

>  <Num_Resolved_Atoms>  (73) 
nan

>  <Num_Not_Resolved_Atoms>  (73) 
nan

$$$$
CHEMBL1580826
     RDKit          3D

  0  0  0  0  0  0  0  0  0  0999 V3000
M  V30 BEGIN CTAB
M  V30 COUNTS 59 61 0 0 0
M  V30 BEGIN ATOM
M  V30 1 C -2.658977 1.238069 3.723799 0
M  V30 2 N -2.150572 -0.014699 3.223085 0
M  V30 3 C -0.806478 -0.371999 3.019929 0
M  V30 4 S 0.113791 0.808080 3.631090 0
M  V30 5 N 0.230473 -1.242297 2.630936 0
M  V30 6 C 1.624392 -1.413678 2.480787 0
M  V30 7 C 2.594832 -0.306273 2.430337 0
M  V30 8 C 2.530427 0.646756 1.336240 0
M  V30 9 C 2.775786 0.154502 0.049465 0
M  V30 10 C 3.089654 -1.234976 -0.439967 0
M  V30 11 N 2.714277 1.159129 -0.861976 0
M  V30 12 C 2.439776 2.318039 -0.247382 0
M  V30 13 C 2.297891 3.606606 -0.697311 0
M  V30 14 C 2.043148 4.615961 0.212842 0
M  V30 15 C 1.943565 4.276205 1.541503 0
M  V30 16 Cl 1.622368 5.546080 2.695058 0
M  V30 17 C 2.087422 2.985636 1.971167 0
M  V30 18 C 2.336730 1.977551 1.075983 0
M  V30 19 C -0.536829 -2.474133 2.316923 0
M  V30 20 C -1.025349 -2.500562 0.941168 0
M  V30 21 C -2.133073 -1.983052 0.329828 0
M  V30 22 C -2.490662 -2.084247 -0.989010 0
M  V30 23 O -3.655327 -1.494995 -1.448994 0
M  V30 24 C -4.525147 -0.768175 -0.584140 0
M  V30 25 C -1.681004 -2.775355 -1.843157 0
M  V30 26 O -2.029967 -2.882179 -3.177305 0
M  V30 27 C -2.804859 -3.909577 -3.739057 0
M  V30 28 C -0.526332 -3.351593 -1.346910 0
M  V30 29 O 0.253192 -4.040764 -2.248502 0
M  V30 30 C 1.424937 -4.663118 -1.819877 0
M  V30 31 C -0.253084 -3.193156 -0.006059 0
M  V30 32 H -3.320934 1.707884 2.969090 0
M  V30 33 H -3.185947 1.137985 4.683033 0
M  V30 34 H -1.806002 1.959789 3.834798 0
M  V30 35 H -3.011620 -0.574461 3.072910 0
M  V30 36 H 1.948620 -2.044200 3.390192 0
M  V30 37 H 1.799178 -2.155104 1.638834 0
M  V30 38 H 2.566414 0.258817 3.410277 0
M  V30 39 H 3.655616 -0.727162 2.406038 0
M  V30 40 H 3.691325 -1.770122 0.314969 0
M  V30 41 H 3.640816 -1.179259 -1.390101 0
M  V30 42 H 2.112424 -1.693003 -0.678044 0
M  V30 43 H 2.849116 1.105960 -1.907704 0
M  V30 44 H 2.390145 3.794362 -1.766293 0
M  V30 45 H 1.927042 5.640943 -0.136741 0
M  V30 46 H 2.029937 2.772692 3.022346 0
M  V30 47 H -1.313706 -2.676557 3.091498 0
M  V30 48 H 0.177087 -3.329485 2.447682 0
M  V30 49 H -2.810307 -1.435477 0.955463 0
M  V30 50 H -5.348651 -0.298082 -1.158880 0
M  V30 51 H -5.001464 -1.436934 0.173050 0
M  V30 52 H -3.954676 -0.015635 -0.003780 0
M  V30 53 H -3.895795 -3.745094 -3.542537 0
M  V30 54 H -2.540073 -4.894026 -3.344165 0
M  V30 55 H -2.653874 -3.823110 -4.852311 0
M  V30 56 H 2.105204 -3.929721 -1.386700 0
M  V30 57 H 1.937424 -5.213166 -2.643188 0
M  V30 58 H 1.145777 -5.372132 -0.991329 0
M  V30 59 H 0.690790 -3.708431 0.240652 0
M  V30 END ATOM
M  V30 BEGIN BOND
M  V30 1 1 1 2
M  V30 2 1 2 3
M  V30 3 2 3 4
M  V30 4 1 3 5
M  V30 5 1 5 6
M  V30 6 1 6 7
M  V30 7 1 7 8
M  V30 8 2 8 9
M  V30 9 1 9 10
M  V30 10 1 9 11
M  V30 11 1 11 12
M  V30 12 2 12 13
M  V30 13 1 13 14
M  V30 14 2 14 15
M  V30 15 1 15 16
M  V30 16 1 15 17
M  V30 17 2 17 18
M  V30 18 1 5 19
M  V30 19 1 19 20
M  V30 20 2 20 21
M  V30 21 1 21 22
M  V30 22 1 22 23
M  V30 23 1 23 24
M  V30 24 2 22 25
M  V30 25 1 25 26
M  V30 26 1 26 27
M  V30 27 1 25 28
M  V30 28 1 28 29
M  V30 29 1 29 30
M  V30 30 2 28 31
M  V30 31 1 18 8
M  V30 32 1 31 20
M  V30 33 1 18 12
M  V30 34 1 1 32
M  V30 35 1 1 33
M  V30 36 1 1 34
M  V30 37 1 2 35
M  V30 38 1 6 36
M  V30 39 1 6 37
M  V30 40 1 7 38
M  V30 41 1 7 39
M  V30 42 1 10 40
M  V30 43 1 10 41
M  V30 44 1 10 42
M  V30 45 1 11 43
M  V30 46 1 13 44
M  V30 47 1 14 45
M  V30 48 1 17 46
M  V30 49 1 19 47
M  V30 50 1 19 48
M  V30 51 1 21 49
M  V30 52 1 24 50
M  V30 53 1 24 51
M  V30 54 1 24 52
M  V30 55 1 27 53
M  V30 56 1 27 54
M  V30 57 1 27 55
M  V30 58 1 30 56
M  V30 59 1 30 57
M  V30 60 1 30 58
M  V30 61 1 31 59
M  V30 END BOND
M  V30 END CTAB
M  END
>  <Dataset>  (74) 
ChEMBL_Kinases

>  <Ligand_Instance>  (74) 
nan

>  <PDB_ID>  (74) 
nan

>  <Standardized_SMILES>  (74) 
CNC(=S)N(CCc1c(C)[nH]c2ccc(Cl)cc12)Cc1cc(OC)c(OC)c(OC)c1

>  <Name>  (74) 
nan

>  <Pocket>  (74) 
nan

>  <ATP_Site>  (74) 
nan

>  <Peripheral>  (74) 
nan

>  <Num_H_Atoms_ProtBoundConf>  (74) 
nan

>  <Num_Resolved_Atoms>  (74) 
nan

>  <Num_Not_Resolved_Atoms>  (74) 
nan

$$$$
CHEMBL1580419
     RDKit          3D

  0  0  0  0  0  0  0  0  0  0999 V3000
M  V30 BEGIN CTAB
M  V30 COUNTS 49 52 0 0 0
M  V30 BEGIN ATOM
M  V30 1 O 0.399630 -0.993613 2.487276 0
M  V30 2 C 0.479727 -1.200554 1.242087 0
M  V30 3 C 1.487840 -1.407336 0.216067 0
M  V30 4 C 2.918565 -1.425093 0.626360 0
M  V30 5 N 3.441927 -0.241378 1.229010 0
M  V30 6 C 3.865029 0.651289 0.281632 0
M  V30 7 S 3.762525 0.404684 -1.350460 0
M  V30 8 N 4.416191 1.838917 0.592306 0
M  V30 9 C 4.595048 2.243397 1.870370 0
M  V30 10 C 5.146320 3.433672 2.259024 0
M  V30 11 C 5.293975 3.771356 3.580440 0
M  V30 12 C 4.866105 2.866808 4.528831 0
M  V30 13 C 4.293512 1.632243 4.196663 0
M  V30 14 C 4.175707 1.358277 2.858036 0
M  V30 15 C 3.624535 0.168559 2.490699 0
M  V30 16 O 3.241415 -0.649772 3.351919 0
M  V30 17 N -0.823614 -1.249586 0.636791 0
M  V30 18 C -1.201404 -1.465312 -0.771087 0
M  V30 19 C -1.963050 -2.786915 -0.776232 0
M  V30 20 N -3.251156 -2.460916 -0.196782 0
M  V30 21 C -4.503714 -2.466853 -0.820510 0
M  V30 22 C -4.742392 -2.765409 -2.143119 0
M  V30 23 C -5.987251 -2.766326 -2.743458 0
M  V30 24 C -7.092998 -2.439576 -1.951169 0
M  V30 25 C -6.812047 -2.148999 -0.641254 0
M  V30 26 N -5.585172 -2.161172 -0.103284 0
M  V30 27 C -3.089520 -2.102729 1.173942 0
M  V30 28 C -2.046842 -1.070640 1.422796 0
M  V30 29 H 1.313450 -0.715028 -0.656921 0
M  V30 30 H 1.277495 -2.421590 -0.239765 0
M  V30 31 H 3.579638 -1.734118 -0.239217 0
M  V30 32 H 3.108834 -2.274047 1.362887 0
M  V30 33 H 4.750049 2.541678 -0.102798 0
M  V30 34 H 5.469888 4.117170 1.479810 0
M  V30 35 H 5.738005 4.727242 3.802890 0
M  V30 36 H 5.005912 3.183589 5.562628 0
M  V30 37 H 3.976939 0.965874 4.993832 0
M  V30 38 H -1.868601 -0.628047 -1.044528 0
M  V30 39 H -0.355669 -1.474678 -1.452553 0
M  V30 40 H -2.066004 -3.176160 -1.810138 0
M  V30 41 H -1.502359 -3.558894 -0.152295 0
M  V30 42 H -3.885425 -3.021458 -2.765643 0
M  V30 43 H -6.135181 -3.008194 -3.792370 0
M  V30 44 H -8.089673 -2.414463 -2.329853 0
M  V30 45 H -7.628957 -1.883687 0.042183 0
M  V30 46 H -2.768606 -3.035261 1.714743 0
M  V30 47 H -4.039295 -1.766145 1.658743 0
M  V30 48 H -2.449089 -0.075383 1.163085 0
M  V30 49 H -1.747341 -1.022871 2.503986 0
M  V30 END ATOM
M  V30 BEGIN BOND
M  V30 1 2 1 2
M  V30 2 1 2 3
M  V30 3 1 3 4
M  V30 4 1 4 5
M  V30 5 1 5 6
M  V30 6 2 6 7
M  V30 7 1 6 8
M  V30 8 1 8 9
M  V30 9 2 9 10
M  V30 10 1 10 11
M  V30 11 2 11 12
M  V30 12 1 12 13
M  V30 13 2 13 14
M  V30 14 1 14 15
M  V30 15 2 15 16
M  V30 16 1 2 17
M  V30 17 1 17 18
M  V30 18 1 18 19
M  V30 19 1 19 20
M  V30 20 1 20 21
M  V30 21 2 21 22
M  V30 22 1 22 23
M  V30 23 2 23 24
M  V30 24 1 24 25
M  V30 25 2 25 26
M  V30 26 1 20 27
M  V30 27 1 27 28
M  V30 28 1 15 5
M  V30 29 1 28 17
M  V30 30 1 14 9
M  V30 31 1 26 21
M  V30 32 1 3 29
M  V30 33 1 3 30
M  V30 34 1 4 31
M  V30 35 1 4 32
M  V30 36 1 8 33
M  V30 37 1 10 34
M  V30 38 1 11 35
M  V30 39 1 12 36
M  V30 40 1 13 37
M  V30 41 1 18 38
M  V30 42 1 18 39
M  V30 43 1 19 40
M  V30 44 1 19 41
M  V30 45 1 22 42
M  V30 46 1 23 43
M  V30 47 1 24 44
M  V30 48 1 25 45
M  V30 49 1 27 46
M  V30 50 1 27 47
M  V30 51 1 28 48
M  V30 52 1 28 49
M  V30 END BOND
M  V30 END CTAB
M  END
>  <Dataset>  (75) 
ChEMBL_Kinases

>  <Ligand_Instance>  (75) 
nan

>  <PDB_ID>  (75) 
nan

>  <Standardized_SMILES>  (75) 
O=C(CCn1c(=S)[nH]c2ccccc2c1=O)N1CCN(c2ccccn2)CC1

>  <Name>  (75) 
nan

>  <Pocket>  (75) 
nan

>  <ATP_Site>  (75) 
nan

>  <Peripheral>  (75) 
nan

>  <Num_H_Atoms_ProtBoundConf>  (75) 
nan

>  <Num_Resolved_Atoms>  (75) 
nan

>  <Num_Not_Resolved_Atoms>  (75) 
nan

$$$$
CHEMBL1580438
     RDKit          3D

  0  0  0  0  0  0  0  0  0  0999 V3000
M  V30 BEGIN CTAB
M  V30 COUNTS 55 58 0 0 0
M  V30 BEGIN ATOM
M  V30 1 O 4.349566 -1.629196 -0.284555 0
M  V30 2 C 3.889277 -0.739327 0.497366 0
M  V30 3 N 4.626192 -0.625969 1.697780 0
M  V30 4 C 5.762978 -1.456855 1.946027 0
M  V30 5 C 6.332568 -1.114947 3.279079 0
M  V30 6 C 5.920054 -1.746352 4.443160 0
M  V30 7 C 6.619489 -1.223948 5.511066 0
M  V30 8 C 7.442551 -0.278061 4.930269 0
M  V30 9 O 7.259671 -0.229732 3.624968 0
M  V30 10 C 2.718870 0.075780 0.177491 0
M  V30 11 C 2.183055 1.052410 0.994132 0
M  V30 12 C 1.072268 1.783038 0.621957 0
M  V30 13 C 0.444489 1.561668 -0.600678 0
M  V30 14 S -0.964900 2.469999 -1.102702 0
M  V30 15 O -0.929404 3.840014 -0.507148 0
M  V30 16 O -0.994597 2.618087 -2.613673 0
M  V30 17 C -2.459619 1.706956 -0.599065 0
M  V30 18 C -2.979563 2.052771 0.631798 0
M  V30 19 C -4.156082 1.549898 1.196985 0
M  V30 20 C -4.820640 0.624647 0.408807 0
M  V30 21 C -4.346866 0.240165 -0.832578 0
M  V30 22 S -5.221783 -0.932787 -1.792333 0
M  V30 23 O -6.702714 -0.811927 -1.608543 0
M  V30 24 O -4.928394 -0.631291 -3.251054 0
M  V30 25 N -4.724987 -2.551772 -1.476157 0
M  V30 26 C -4.960024 -2.925869 -0.113442 0
M  V30 27 C -3.633477 -3.218583 0.557978 0
M  V30 28 O -3.117408 -4.334101 -0.082847 0
M  V30 29 C -2.838182 -4.083807 -1.419809 0
M  V30 30 C -3.351382 -2.756336 -1.888014 0
M  V30 31 C -3.178045 0.776399 -1.330761 0
M  V30 32 C 0.998528 0.580329 -1.399600 0
M  V30 33 C 2.111109 -0.161639 -1.043037 0
M  V30 34 H 4.305145 0.097548 2.407096 0
M  V30 35 H 5.512773 -2.547233 1.927146 0
M  V30 36 H 6.594808 -1.345426 1.223573 0
M  V30 37 H 5.171828 -2.528712 4.540978 0
M  V30 38 H 6.597961 -1.436925 6.570766 0
M  V30 39 H 8.178140 0.389658 5.396895 0
M  V30 40 H 2.669129 1.226163 1.944541 0
M  V30 41 H 0.683494 2.539142 1.290265 0
M  V30 42 H -2.445125 2.786647 1.248033 0
M  V30 43 H -4.472801 1.890332 2.170918 0
M  V30 44 H -5.746369 0.200046 0.803572 0
M  V30 45 H -5.541365 -3.875648 -0.114056 0
M  V30 46 H -5.566447 -2.186117 0.438010 0
M  V30 47 H -2.970689 -2.347840 0.525017 0
M  V30 48 H -3.801878 -3.506300 1.624009 0
M  V30 49 H -3.186244 -4.931357 -2.063043 0
M  V30 50 H -1.728499 -4.097306 -1.517789 0
M  V30 51 H -3.345512 -2.726978 -2.990348 0
M  V30 52 H -2.659993 -1.974743 -1.497647 0
M  V30 53 H -2.763169 0.513684 -2.290040 0
M  V30 54 H 0.545085 0.364260 -2.372357 0
M  V30 55 H 2.492213 -0.923493 -1.731161 0
M  V30 END ATOM
M  V30 BEGIN BOND
M  V30 1 2 1 2
M  V30 2 1 2 3
M  V30 3 1 3 4
M  V30 4 1 4 5
M  V30 5 2 5 6
M  V30 6 1 6 7
M  V30 7 2 7 8
M  V30 8 1 8 9
M  V30 9 1 2 10
M  V30 10 2 10 11
M  V30 11 1 11 12
M  V30 12 2 12 13
M  V30 13 1 13 14
M  V30 14 2 14 15
M  V30 15 2 14 16
M  V30 16 1 14 17
M  V30 17 2 17 18
M  V30 18 1 18 19
M  V30 19 2 19 20
M  V30 20 1 20 21
M  V30 21 1 21 22
M  V30 22 2 22 23
M  V30 23 2 22 24
M  V30 24 1 22 25
M  V30 25 1 25 26
M  V30 26 1 26 27
M  V30 27 1 27 28
M  V30 28 1 28 29
M  V30 29 1 29 30
M  V30 30 2 21 31
M  V30 31 1 13 32
M  V30 32 2 32 33
M  V30 33 1 9 5
M  V30 34 1 33 10
M  V30 35 1 31 17
M  V30 36 1 30 25
M  V30 37 1 3 34
M  V30 38 1 4 35
M  V30 39 1 4 36
M  V30 40 1 6 37
M  V30 41 1 7 38
M  V30 42 1 8 39
M  V30 43 1 11 40
M  V30 44 1 12 41
M  V30 45 1 18 42
M  V30 46 1 19 43
M  V30 47 1 20 44
M  V30 48 1 26 45
M  V30 49 1 26 46
M  V30 50 1 27 47
M  V30 51 1 27 48
M  V30 52 1 29 49
M  V30 53 1 29 50
M  V30 54 1 30 51
M  V30 55 1 30 52
M  V30 56 1 31 53
M  V30 57 1 32 54
M  V30 58 1 33 55
M  V30 END BOND
M  V30 END CTAB
M  END
>  <Dataset>  (76) 
ChEMBL_Kinases

>  <Ligand_Instance>  (76) 
nan

>  <PDB_ID>  (76) 
nan

>  <Standardized_SMILES>  (76) 
O=C(NCc1ccco1)c1ccc(S(=O)(=O)c2cccc(S(=O)(=O)N3CCOCC3)c2)cc1

>  <Name>  (76) 
nan

>  <Pocket>  (76) 
nan

>  <ATP_Site>  (76) 
nan

>  <Peripheral>  (76) 
nan

>  <Num_H_Atoms_ProtBoundConf>  (76) 
nan

>  <Num_Resolved_Atoms>  (76) 
nan

>  <Num_Not_Resolved_Atoms>  (76) 
nan

$$$$
CHEMBL1580578
     RDKit          3D

  0  0  0  0  0  0  0  0  0  0999 V3000
M  V30 BEGIN CTAB
M  V30 COUNTS 39 40 0 0 0
M  V30 BEGIN ATOM
M  V30 1 C 2.604787 -6.532564 3.612056 0
M  V30 2 C 1.224484 -6.847671 3.063415 0
M  V30 3 N 0.981315 -5.919399 1.970110 0
M  V30 4 N 1.320004 -6.201138 0.703300 0
M  V30 5 N 0.980600 -5.179394 -0.067059 0
M  V30 6 C 0.412268 -4.216255 0.705900 0
M  V30 7 N -0.140679 -2.922417 0.473726 0
M  V30 8 C 0.736172 -1.819349 0.555168 0
M  V30 9 O 1.951534 -1.969942 0.820669 0
M  V30 10 C 0.281408 -0.450938 0.336590 0
M  V30 11 C 1.193772 0.581385 0.431853 0
M  V30 12 C 0.839025 1.922206 0.236529 0
M  V30 13 C -0.494336 2.222803 -0.067070 0
M  V30 14 C -0.753055 3.668998 -0.252030 0
M  V30 15 C -2.168228 4.014117 -0.576508 0
M  V30 16 C 0.204324 4.170418 -1.313349 0
M  V30 17 C -0.409565 4.374115 1.066513 0
M  V30 18 C -1.416974 1.203411 -0.165639 0
M  V30 19 C -1.019369 -0.103454 0.035483 0
M  V30 20 N 0.429963 -4.714503 1.973642 0
M  V30 21 H 3.396567 -7.152135 3.102626 0
M  V30 22 H 2.612863 -6.678917 4.711351 0
M  V30 23 H 2.868719 -5.465404 3.416400 0
M  V30 24 H 1.146321 -7.893301 2.722906 0
M  V30 25 H 0.488417 -6.591414 3.857852 0
M  V30 26 H -1.153710 -2.803361 0.253011 0
M  V30 27 H 2.248667 0.393624 0.667497 0
M  V30 28 H 1.621006 2.689003 0.328900 0
M  V30 29 H -2.847038 3.478375 0.095457 0
M  V30 30 H -2.290058 5.110263 -0.333676 0
M  V30 31 H -2.422170 3.953667 -1.653355 0
M  V30 32 H -0.394112 4.311104 -2.236323 0
M  V30 33 H 0.997286 3.434678 -1.521488 0
M  V30 34 H 0.701911 5.080786 -0.964536 0
M  V30 35 H 0.128218 5.333603 0.889404 0
M  V30 36 H -1.338530 4.556998 1.631305 0
M  V30 37 H 0.237311 3.706485 1.681243 0
M  V30 38 H -2.418904 1.491276 -0.399409 0
M  V30 39 H -1.753247 -0.876564 -0.046351 0
M  V30 END ATOM
M  V30 BEGIN BOND
M  V30 1 1 1 2
M  V30 2 1 2 3
M  V30 3 1 3 4
M  V30 4 2 4 5
M  V30 5 1 5 6
M  V30 6 1 6 7
M  V30 7 1 7 8
M  V30 8 2 8 9
M  V30 9 1 8 10
M  V30 10 2 10 11
M  V30 11 1 11 12
M  V30 12 2 12 13
M  V30 13 1 13 14
M  V30 14 1 14 15
M  V30 15 1 14 16
M  V30 16 1 14 17
M  V30 17 1 13 18
M  V30 18 2 18 19
M  V30 19 2 6 20
M  V30 20 1 20 3
M  V30 21 1 19 10
M  V30 22 1 1 21
M  V30 23 1 1 22
M  V30 24 1 1 23
M  V30 25 1 2 24
M  V30 26 1 2 25
M  V30 27 1 7 26
M  V30 28 1 11 27
M  V30 29 1 12 28
M  V30 30 1 15 29
M  V30 31 1 15 30
M  V30 32 1 15 31
M  V30 33 1 16 32
M  V30 34 1 16 33
M  V30 35 1 16 34
M  V30 36 1 17 35
M  V30 37 1 17 36
M  V30 38 1 17 37
M  V30 39 1 18 38
M  V30 40 1 19 39
M  V30 END BOND
M  V30 END CTAB
M  END
>  <Dataset>  (77) 
ChEMBL_Kinases

>  <Ligand_Instance>  (77) 
nan

>  <PDB_ID>  (77) 
nan

>  <Standardized_SMILES>  (77) 
CCn1nnc(NC(=O)c2ccc(C(C)(C)C)cc2)n1

>  <Name>  (77) 
nan

>  <Pocket>  (77) 
nan

>  <ATP_Site>  (77) 
nan

>  <Peripheral>  (77) 
nan

>  <Num_H_Atoms_ProtBoundConf>  (77) 
nan

>  <Num_Resolved_Atoms>  (77) 
nan

>  <Num_Not_Resolved_Atoms>  (77) 
nan

$$$$
CHEMBL1580616
     RDKit          3D

  0  0  0  0  0  0  0  0  0  0999 V3000
M  V30 BEGIN CTAB
M  V30 COUNTS 60 64 0 0 0
M  V30 BEGIN ATOM
M  V30 1 C 0.829822 -2.392119 5.571517 0
M  V30 2 C 1.942291 -2.200653 4.832999 0
M  V30 3 C 2.869374 -1.053337 5.019449 0
M  V30 4 O 2.968490 -0.271672 3.848932 0
M  V30 5 C 3.417559 -0.876253 2.683307 0
M  V30 6 O 3.484189 -1.889013 3.426631 0
M  V30 7 C 3.450929 0.128220 1.554303 0
M  V30 8 C 4.376575 1.174286 2.070602 0
M  V30 9 N 5.082637 2.001677 2.466979 0
M  V30 10 C 2.140530 0.727086 1.280903 0
M  V30 11 N 2.072192 2.066815 1.213414 0
M  V30 12 C 0.919900 2.702718 1.022586 0
M  V30 13 C 0.921003 4.081409 0.963638 0
M  V30 14 C -0.303814 4.707487 0.763581 0
M  V30 15 C -1.487604 4.003833 0.626317 0
M  V30 16 C -1.446949 2.627620 0.691028 0
M  V30 17 C -0.244091 1.980187 0.888886 0
M  V30 18 N -0.136453 0.646743 0.960658 0
M  V30 19 C 1.007269 -0.032648 1.150821 0
M  V30 20 N 0.939482 -1.450675 1.123217 0
M  V30 21 C -0.349892 -2.013873 1.584022 0
M  V30 22 C -1.088647 -2.405221 0.317632 0
M  V30 23 N -0.155977 -2.710356 -0.750775 0
M  V30 24 C -0.833692 -3.543041 -1.715922 0
M  V30 25 C -2.005868 -2.929065 -2.344568 0
M  V30 26 C -3.329347 -2.965424 -1.960686 0
M  V30 27 C -4.324469 -2.334960 -2.652533 0
M  V30 28 C -4.069993 -1.609174 -3.797901 0
M  V30 29 C -2.757812 -1.545798 -4.219408 0
M  V30 30 C -1.764068 -2.188617 -3.508737 0
M  V30 31 O -2.703339 -0.771909 -5.386697 0
M  V30 32 C -3.914041 -0.004261 -5.432441 0
M  V30 33 O -4.802583 -0.869860 -4.717515 0
M  V30 34 C 1.015283 -3.377128 -0.292844 0
M  V30 35 C 1.790331 -2.547501 0.715849 0
M  V30 36 H 0.163359 -2.062461 6.374760 0
M  V30 37 H 0.007592 -2.340771 6.275312 0
M  V30 38 H 1.451441 -3.102207 4.495845 0
M  V30 39 H 3.846762 -1.319191 5.433688 0
M  V30 40 H 2.361858 -0.396805 5.791704 0
M  V30 41 H 3.970178 -0.255499 0.662676 0
M  V30 42 H 1.850215 4.646901 1.070812 0
M  V30 43 H -0.306230 5.801936 0.716348 0
M  V30 44 H -2.433644 4.478034 0.472161 0
M  V30 45 H -2.300269 1.967895 0.598600 0
M  V30 46 H -0.197274 -2.906339 2.212329 0
M  V30 47 H -0.919690 -1.300596 2.195505 0
M  V30 48 H -1.669476 -1.521021 -0.004285 0
M  V30 49 H -1.762915 -3.232357 0.521149 0
M  V30 50 H -1.176278 -4.511123 -1.253625 0
M  V30 51 H -0.138009 -3.882525 -2.529356 0
M  V30 52 H -3.518270 -3.537732 -1.063876 0
M  V30 53 H -5.335173 -2.397465 -2.307469 0
M  V30 54 H -0.744388 -2.094179 -3.903574 0
M  V30 55 H -3.707977 0.919139 -4.829474 0
M  V30 56 H -4.249380 0.200469 -6.457375 0
M  V30 57 H 0.834353 -4.381736 0.124923 0
M  V30 58 H 1.652675 -3.541727 -1.211174 0
M  V30 59 H 1.999265 -3.199534 1.584863 0
M  V30 60 H 2.768735 -2.241597 0.297157 0
M  V30 END ATOM
M  V30 BEGIN BOND
M  V30 1 2 1 2
M  V30 2 1 2 3
M  V30 3 1 3 4
M  V30 4 1 4 5
M  V30 5 2 5 6
M  V30 6 1 5 7
M  V30 7 1 7 8
M  V30 8 3 8 9
M  V30 9 1 7 10
M  V30 10 2 10 11
M  V30 11 1 11 12
M  V30 12 2 12 13
M  V30 13 1 13 14
M  V30 14 2 14 15
M  V30 15 1 15 16
M  V30 16 2 16 17
M  V30 17 1 17 18
M  V30 18 2 18 19
M  V30 19 1 19 20
M  V30 20 1 20 21
M  V30 21 1 21 22
M  V30 22 1 22 23
M  V30 23 1 23 24
M  V30 24 1 24 25
M  V30 25 2 25 26
M  V30 26 1 26 27
M  V30 27 2 27 28
M  V30 28 1 28 29
M  V30 29 2 29 30
M  V30 30 1 29 31
M  V30 31 1 31 32
M  V30 32 1 32 33
M  V30 33 1 23 34
M  V30 34 1 34 35
M  V30 35 1 19 10
M  V30 36 1 35 20
M  V30 37 1 17 12
M  V30 38 1 30 25
M  V30 39 1 33 28
M  V30 40 1 1 36
M  V30 41 1 1 37
M  V30 42 1 2 38
M  V30 43 1 3 39
M  V30 44 1 3 40
M  V30 45 1 7 41
M  V30 46 1 13 42
M  V30 47 1 14 43
M  V30 48 1 15 44
M  V30 49 1 16 45
M  V30 50 1 21 46
M  V30 51 1 21 47
M  V30 52 1 22 48
M  V30 53 1 22 49
M  V30 54 1 24 50
M  V30 55 1 24 51
M  V30 56 1 26 52
M  V30 57 1 27 53
M  V30 58 1 30 54
M  V30 59 1 32 55
M  V30 60 1 32 56
M  V30 61 1 34 57
M  V30 62 1 34 58
M  V30 63 1 35 59
M  V30 64 1 35 60
M  V30 END BOND
M  V30 END CTAB
M  END
>  <Dataset>  (78) 
ChEMBL_Kinases

>  <Ligand_Instance>  (78) 
nan

>  <PDB_ID>  (78) 
nan

>  <Standardized_SMILES>  (78) 
C=CCOC(=O)C(C#N)c1nc2ccccc2nc1N1CCN(Cc2ccc3c(c2)OCO3)CC1

>  <Name>  (78) 
nan

>  <Pocket>  (78) 
nan

>  <ATP_Site>  (78) 
nan

>  <Peripheral>  (78) 
nan

>  <Num_H_Atoms_ProtBoundConf>  (78) 
nan

>  <Num_Resolved_Atoms>  (78) 
nan

>  <Num_Not_Resolved_Atoms>  (78) 
nan

$$$$
CHEMBL1580641
     RDKit          3D

  0  0  0  0  0  0  0  0  0  0999 V3000
M  V30 BEGIN CTAB
M  V30 COUNTS 48 50 0 0 0
M  V30 BEGIN ATOM
M  V30 1 C 0.251254 -4.597010 3.668462 0
M  V30 2 C 0.517859 -3.742698 2.439341 0
M  V30 3 C -0.798914 -3.265124 1.856024 0
M  V30 4 N -0.485812 -2.462163 0.692107 0
M  V30 5 C 0.269767 -1.276593 0.743113 0
M  V30 6 N 0.821342 -0.673281 1.808040 0
M  V30 7 C 1.473639 0.442912 1.481183 0
M  V30 8 C 1.330257 0.562292 0.116761 0
M  V30 9 C 1.933170 1.663844 -0.459158 0
M  V30 10 O 1.827690 1.811119 -1.696716 0
M  V30 11 N 2.614561 2.547429 0.312571 0
M  V30 12 C 3.224364 3.685448 -0.363759 0
M  V30 13 C 2.724969 2.382710 1.649701 0
M  V30 14 O 3.360686 3.217461 2.328769 0
M  V30 15 N 2.143677 1.309034 2.250751 0
M  V30 16 C 2.235070 1.089505 3.685723 0
M  V30 17 N 0.599900 -0.491812 -0.287498 0
M  V30 18 C 0.285771 -0.635785 -1.686596 0
M  V30 19 C -1.004294 0.048760 -2.075980 0
M  V30 20 C -2.178648 -0.472252 -1.346604 0
M  V30 21 C -2.435166 0.198565 -0.157555 0
M  V30 22 C -3.485283 -0.127984 0.677489 0
M  V30 23 C -4.324379 -1.170372 0.319161 0
M  V30 24 C -4.073433 -1.841292 -0.863355 0
M  V30 25 C -3.012251 -1.505745 -1.699920 0
M  V30 26 H -0.817624 -4.511293 3.950937 0
M  V30 27 H 0.436899 -5.676450 3.411883 0
M  V30 28 H 0.931309 -4.342210 4.487244 0
M  V30 29 H 1.112446 -2.847270 2.684903 0
M  V30 30 H 1.104418 -4.309846 1.688848 0
M  V30 31 H -1.442886 -4.114943 1.581077 0
M  V30 32 H -1.353906 -2.625051 2.564570 0
M  V30 33 H -0.851047 -2.796490 -0.248210 0
M  V30 34 H 2.398553 4.439447 -0.507241 0
M  V30 35 H 4.075383 4.113976 0.199582 0
M  V30 36 H 3.587516 3.360970 -1.350194 0
M  V30 37 H 2.251902 0.009463 3.917561 0
M  V30 38 H 1.319937 1.557590 4.140944 0
M  V30 39 H 3.155930 1.582777 4.060175 0
M  V30 40 H 1.071929 -0.292000 -2.376421 0
M  V30 41 H 0.159891 -1.732709 -1.926051 0
M  V30 42 H -1.129605 -0.149402 -3.176636 0
M  V30 43 H -0.919105 1.147031 -1.975502 0
M  V30 44 H -1.841810 1.026253 0.214623 0
M  V30 45 H -3.694799 0.383862 1.601448 0
M  V30 46 H -5.151376 -1.443681 0.955691 0
M  V30 47 H -4.710360 -2.660259 -1.171825 0
M  V30 48 H -2.765368 -1.983946 -2.624734 0
M  V30 END ATOM
M  V30 BEGIN BOND
M  V30 1 1 1 2
M  V30 2 1 2 3
M  V30 3 1 3 4
M  V30 4 1 4 5
M  V30 5 2 5 6
M  V30 6 1 6 7
M  V30 7 2 7 8
M  V30 8 1 8 9
M  V30 9 2 9 10
M  V30 10 1 9 11
M  V30 11 1 11 12
M  V30 12 1 11 13
M  V30 13 2 13 14
M  V30 14 1 13 15
M  V30 15 1 15 16
M  V30 16 1 8 17
M  V30 17 1 17 18
M  V30 18 1 18 19
M  V30 19 1 19 20
M  V30 20 2 20 21
M  V30 21 1 21 22
M  V30 22 2 22 23
M  V30 23 1 23 24
M  V30 24 2 24 25
M  V30 25 1 17 5
M  V30 26 1 25 20
M  V30 27 1 15 7
M  V30 28 1 1 26
M  V30 29 1 1 27
M  V30 30 1 1 28
M  V30 31 1 2 29
M  V30 32 1 2 30
M  V30 33 1 3 31
M  V30 34 1 3 32
M  V30 35 1 4 33
M  V30 36 1 12 34
M  V30 37 1 12 35
M  V30 38 1 12 36
M  V30 39 1 16 37
M  V30 40 1 16 38
M  V30 41 1 16 39
M  V30 42 1 18 40
M  V30 43 1 18 41
M  V30 44 1 19 42
M  V30 45 1 19 43
M  V30 46 1 21 44
M  V30 47 1 22 45
M  V30 48 1 23 46
M  V30 49 1 24 47
M  V30 50 1 25 48
M  V30 END BOND
M  V30 END CTAB
M  END
>  <Dataset>  (79) 
ChEMBL_Kinases

>  <Ligand_Instance>  (79) 
nan

>  <PDB_ID>  (79) 
nan

>  <Standardized_SMILES>  (79) 
CCCNc1nc2c(c(=O)n(C)c(=O)n2C)n1CCc1ccccc1

>  <Name>  (79) 
nan

>  <Pocket>  (79) 
nan

>  <ATP_Site>  (79) 
nan

>  <Peripheral>  (79) 
nan

>  <Num_H_Atoms_ProtBoundConf>  (79) 
nan

>  <Num_Resolved_Atoms>  (79) 
nan

>  <Num_Not_Resolved_Atoms>  (79) 
nan

$$$$
CHEMBL1580664
     RDKit          3D

  0  0  0  0  0  0  0  0  0  0999 V3000
M  V30 BEGIN CTAB
M  V30 COUNTS 38 40 0 0 0
M  V30 BEGIN ATOM
M  V30 1 N 0.375440 -4.323856 -0.304022 0
M  V30 2 C 0.263095 -2.961364 0.094972 0
M  V30 3 N 0.911012 -2.000422 -0.570820 0
M  V30 4 C 0.861881 -0.704288 -0.208689 0
M  V30 5 C 1.572128 0.192856 -1.096792 0
M  V30 6 C 2.281587 -0.299997 -2.172233 0
M  V30 7 C 2.924407 0.480400 -3.120921 0
M  V30 8 O 3.600494 -0.131054 -4.138161 0
M  V30 9 C 2.879565 1.861302 -3.027630 0
M  V30 10 C 2.175643 2.410930 -1.952979 0
M  V30 11 C 1.575293 1.527825 -1.062891 0
M  V30 12 N 0.932666 2.300699 -0.075308 0 CHG=1 VAL=4
M  V30 13 O 0.246480 3.344222 0.166107 0
M  V30 14 O 0.328166 3.004231 0.927934 0 CHG=-1 VAL=1
M  V30 15 C 0.106055 -0.461053 0.886972 0
M  V30 16 C -0.583213 -1.372917 1.618909 0
M  V30 17 C -1.248293 -0.720528 2.783702 0
M  V30 18 C -2.112245 0.318660 2.712173 0
M  V30 19 C -2.571511 0.798561 3.950991 0
M  V30 20 C -2.213993 0.305214 5.173541 0
M  V30 21 C -1.318705 -0.781083 5.140376 0
M  V30 22 C -0.821987 -1.311397 3.943208 0
M  V30 23 C -0.490154 -2.662245 1.186459 0
M  V30 24 N -1.226062 -3.631250 1.895842 0 CHG=1 VAL=4
M  V30 25 O -1.269998 -4.301336 2.931271 0
M  V30 26 O -2.334145 -3.941983 1.100663 0 CHG=-1 VAL=1
M  V30 27 H -0.194688 -4.690645 -1.135690 0
M  V30 28 H 1.067927 -4.724571 0.408810 0
M  V30 29 H 2.359285 -1.391206 -2.332719 0
M  V30 30 H 3.159690 -0.142475 -5.060676 0
M  V30 31 H 3.401531 2.375318 -3.787450 0
M  V30 32 H 2.199164 3.476063 -1.950385 0
M  V30 33 H 0.085924 0.575758 1.186779 0
M  V30 34 H -2.393779 0.682198 1.762779 0
M  V30 35 H -3.260998 1.643247 3.873840 0
M  V30 36 H -2.582673 0.702536 6.105757 0
M  V30 37 H -1.054528 -1.143057 6.113987 0
M  V30 38 H -0.155739 -2.124425 4.114472 0
M  V30 END ATOM
M  V30 BEGIN BOND
M  V30 1 1 1 2
M  V30 2 2 2 3
M  V30 3 1 3 4
M  V30 4 1 4 5
M  V30 5 2 5 6
M  V30 6 1 6 7
M  V30 7 1 7 8
M  V30 8 2 7 9
M  V30 9 1 9 10
M  V30 10 2 10 11
M  V30 11 1 11 12
M  V30 12 2 12 13
M  V30 13 1 12 14
M  V30 14 2 4 15
M  V30 15 1 15 16
M  V30 16 1 16 17
M  V30 17 2 17 18
M  V30 18 1 18 19
M  V30 19 2 19 20
M  V30 20 1 20 21
M  V30 21 2 21 22
M  V30 22 2 16 23
M  V30 23 1 23 24
M  V30 24 2 24 25
M  V30 25 1 24 26
M  V30 26 1 23 2
M  V30 27 1 11 5
M  V30 28 1 22 17
M  V30 29 1 1 27
M  V30 30 1 1 28
M  V30 31 1 6 29
M  V30 32 1 8 30
M  V30 33 1 9 31
M  V30 34 1 10 32
M  V30 35 1 15 33
M  V30 36 1 18 34
M  V30 37 1 19 35
M  V30 38 1 20 36
M  V30 39 1 21 37
M  V30 40 1 22 38
M  V30 END BOND
M  V30 END CTAB
M  END
>  <Dataset>  (80) 
ChEMBL_Kinases

>  <Ligand_Instance>  (80) 
nan

>  <PDB_ID>  (80) 
nan

>  <Standardized_SMILES>  (80) 
Nc1nc(-c2cc(O)ccc2[N+](=O)[O-])cc(-c2ccccc2)c1[N+](=O)[O-]

>  <Name>  (80) 
nan

>  <Pocket>  (80) 
nan

>  <ATP_Site>  (80) 
nan

>  <Peripheral>  (80) 
nan

>  <Num_H_Atoms_ProtBoundConf>  (80) 
nan

>  <Num_Resolved_Atoms>  (80) 
nan

>  <Num_Not_Resolved_Atoms>  (80) 
nan

$$$$
CHEMBL1580667
     RDKit          3D

  0  0  0  0  0  0  0  0  0  0999 V3000
M  V30 BEGIN CTAB
M  V30 COUNTS 36 38 0 0 0
M  V30 BEGIN ATOM
M  V30 1 C 1.359175 -5.040978 4.160479 0
M  V30 2 C 2.420665 -5.453821 3.387968 0
M  V30 3 C 2.544829 -5.010353 2.063989 0
M  V30 4 C 1.609508 -4.143374 1.482369 0
M  V30 5 O 2.001620 -3.901364 0.205244 0
M  V30 6 C 1.390386 -3.099564 -0.732083 0
M  V30 7 C 1.265824 -1.647769 -0.423252 0
M  V30 8 C 0.556547 -1.021181 -1.623172 0
M  V30 9 C 0.367993 0.441723 -1.440332 0
M  V30 10 N -0.651403 1.123408 -0.886404 0
M  V30 11 C -0.406666 2.446678 -0.929990 0
M  V30 12 C -1.223063 3.560063 -0.452255 0
M  V30 13 C -1.884671 4.488716 -1.237140 0
M  V30 14 C -2.612045 5.476006 -0.602106 0
M  V30 15 C -2.677944 5.535645 0.781472 0
M  V30 16 N -2.022787 4.616491 1.538837 0
M  V30 17 C -1.296867 3.630429 0.938312 0
M  V30 18 N 0.812175 2.533513 -1.538069 0
M  V30 19 O 1.254230 1.345303 -1.831944 0
M  V30 20 C 0.574671 -3.764428 2.293280 0
M  V30 21 C 0.441137 -4.191772 3.593340 0
M  V30 22 H 1.195400 -5.337257 5.183173 0
M  V30 23 H 3.102703 -6.119626 3.896388 0
M  V30 24 H 3.449827 -5.451511 1.629050 0
M  V30 25 H 0.406231 -3.560622 -1.011146 0
M  V30 26 H 2.004278 -3.172886 -1.679123 0
M  V30 27 H 2.282427 -1.155832 -0.406165 0
M  V30 28 H 0.770804 -1.364161 0.497148 0
M  V30 29 H -0.428687 -1.539158 -1.722671 0
M  V30 30 H 1.111294 -1.257431 -2.538830 0
M  V30 31 H -1.771460 4.356737 -2.300874 0
M  V30 32 H -3.119424 6.188654 -1.225262 0
M  V30 33 H -3.268475 6.339025 1.215517 0
M  V30 34 H -0.806677 2.940330 1.610877 0
M  V30 35 H -0.104587 -3.109381 1.780460 0
M  V30 36 H -0.433302 -3.807123 4.117899 0
M  V30 END ATOM
M  V30 BEGIN BOND
M  V30 1 2 1 2
M  V30 2 1 2 3
M  V30 3 2 3 4
M  V30 4 1 4 5
M  V30 5 1 5 6
M  V30 6 1 6 7
M  V30 7 1 7 8
M  V30 8 1 8 9
M  V30 9 2 9 10
M  V30 10 1 10 11
M  V30 11 1 11 12
M  V30 12 2 12 13
M  V30 13 1 13 14
M  V30 14 2 14 15
M  V30 15 1 15 16
M  V30 16 2 16 17
M  V30 17 2 11 18
M  V30 18 1 18 19
M  V30 19 1 4 20
M  V30 20 2 20 21
M  V30 21 1 21 1
M  V30 22 1 19 9
M  V30 23 1 17 12
M  V30 24 1 1 22
M  V30 25 1 2 23
M  V30 26 1 3 24
M  V30 27 1 6 25
M  V30 28 1 6 26
M  V30 29 1 7 27
M  V30 30 1 7 28
M  V30 31 1 8 29
M  V30 32 1 8 30
M  V30 33 1 13 31
M  V30 34 1 14 32
M  V30 35 1 15 33
M  V30 36 1 17 34
M  V30 37 1 20 35
M  V30 38 1 21 36
M  V30 END BOND
M  V30 END CTAB
M  END
>  <Dataset>  (81) 
ChEMBL_Kinases

>  <Ligand_Instance>  (81) 
nan

>  <PDB_ID>  (81) 
nan

>  <Standardized_SMILES>  (81) 
c1ccc(OCCCc2nc(-c3cccnc3)no2)cc1

>  <Name>  (81) 
nan

>  <Pocket>  (81) 
nan

>  <ATP_Site>  (81) 
nan

>  <Peripheral>  (81) 
nan

>  <Num_H_Atoms_ProtBoundConf>  (81) 
nan

>  <Num_Resolved_Atoms>  (81) 
nan

>  <Num_Not_Resolved_Atoms>  (81) 
nan

$$$$
CHEMBL1580793
     RDKit          3D

  0  0  0  0  0  0  0  0  0  0999 V3000
M  V30 BEGIN CTAB
M  V30 COUNTS 36 38 0 0 0
M  V30 BEGIN ATOM
M  V30 1 O -2.646659 -2.950812 -0.626380 0
M  V30 2 S -2.237638 -1.567930 -0.131799 0
M  V30 3 O -3.537557 -0.907633 0.262880 0
M  V30 4 N -1.249032 -1.707264 1.276743 0
M  V30 5 C 0.025328 -1.428392 1.145628 0
M  V30 6 C 0.748180 -1.591305 2.432061 0
M  V30 7 C 1.614047 -2.840860 2.422484 0
M  V30 8 C 1.904319 -3.237446 1.003492 0
M  V30 9 C 2.648756 -2.168969 0.238617 0
M  V30 10 C 1.782343 -1.433081 -0.728292 0
M  V30 11 N 0.505101 -1.032116 -0.133118 0
M  V30 12 C -0.244840 -0.155912 -1.011679 0
M  V30 13 C -0.608788 1.139660 -0.328825 0
M  V30 14 C -1.784864 1.849703 -0.311544 0
M  V30 15 C -1.812828 3.014590 0.415135 0
M  V30 16 C -0.753839 3.503308 1.113147 0
M  V30 17 Cl -0.961978 5.004847 1.986642 0
M  V30 18 C 0.420604 2.797732 1.097999 0
M  V30 19 C 0.507052 1.607588 0.376859 0
M  V30 20 N -1.446688 -0.803465 -1.427873 0
M  V30 21 H 1.446200 -0.759555 2.656126 0
M  V30 22 H 0.003512 -1.620153 3.254514 0
M  V30 23 H 2.554179 -2.710744 3.007669 0
M  V30 24 H 0.991086 -3.651313 2.861984 0
M  V30 25 H 2.455011 -4.199929 1.037941 0
M  V30 26 H 0.947560 -3.456585 0.499471 0
M  V30 27 H 3.454248 -2.697968 -0.314257 0
M  V30 28 H 3.139785 -1.510353 0.981630 0
M  V30 29 H 1.541934 -2.060780 -1.609097 0
M  V30 30 H 2.359114 -0.542174 -1.073297 0
M  V30 31 H 0.398955 0.079100 -1.891106 0
M  V30 32 H -2.533860 1.365864 -0.894302 0
M  V30 33 H -2.787405 3.525963 0.380788 0
M  V30 34 H 1.247316 3.219477 1.668323 0
M  V30 35 H 1.488544 1.161248 0.454867 0
M  V30 36 H -1.363531 -1.361211 -2.298447 0
M  V30 END ATOM
M  V30 BEGIN BOND
M  V30 1 2 1 2
M  V30 2 2 2 3
M  V30 3 1 2 4
M  V30 4 2 4 5
M  V30 5 1 5 6
M  V30 6 1 6 7
M  V30 7 1 7 8
M  V30 8 1 8 9
M  V30 9 1 9 10
M  V30 10 1 10 11
M  V30 11 1 11 12
M  V30 12 1 12 13
M  V30 13 2 13 14
M  V30 14 1 14 15
M  V30 15 2 15 16
M  V30 16 1 16 17
M  V30 17 1 16 18
M  V30 18 2 18 19
M  V30 19 1 12 20
M  V30 20 1 20 2
M  V30 21 1 11 5
M  V30 22 1 19 13
M  V30 23 1 6 21
M  V30 24 1 6 22
M  V30 25 1 7 23
M  V30 26 1 7 24
M  V30 27 1 8 25
M  V30 28 1 8 26
M  V30 29 1 9 27
M  V30 30 1 9 28
M  V30 31 1 10 29
M  V30 32 1 10 30
M  V30 33 1 12 31
M  V30 34 1 14 32
M  V30 35 1 15 33
M  V30 36 1 18 34
M  V30 37 1 19 35
M  V30 38 1 20 36
M  V30 END BOND
M  V30 END CTAB
M  END
>  <Dataset>  (82) 
ChEMBL_Kinases

>  <Ligand_Instance>  (82) 
nan

>  <PDB_ID>  (82) 
nan

>  <Standardized_SMILES>  (82) 
O=S1(=O)N=C2CCCCCN2C(c2ccc(Cl)cc2)N1

>  <Name>  (82) 
nan

>  <Pocket>  (82) 
nan

>  <ATP_Site>  (82) 
nan

>  <Peripheral>  (82) 
nan

>  <Num_H_Atoms_ProtBoundConf>  (82) 
nan

>  <Num_Resolved_Atoms>  (82) 
nan

>  <Num_Not_Resolved_Atoms>  (82) 
nan

$$$$
CHEMBL1580276
     RDKit          3D

  0  0  0  0  0  0  0  0  0  0999 V3000
M  V30 BEGIN CTAB
M  V30 COUNTS 64 67 0 0 0
M  V30 BEGIN ATOM
M  V30 1 C 3.380893 -3.136574 5.509700 0
M  V30 2 C 3.472463 -1.902237 4.664243 0
M  V30 3 O 2.793159 -2.026501 3.411332 0
M  V30 4 C 2.846051 -0.900845 2.583547 0
M  V30 5 C 2.152864 -1.108065 1.381364 0
M  V30 6 C 2.163058 -0.019991 0.504985 0
M  V30 7 C 2.791087 1.192766 0.749869 0
M  V30 8 S 2.676910 2.431889 -0.470169 0
M  V30 9 O 4.002416 3.142117 -0.470803 0
M  V30 10 O 2.550052 1.767487 -1.820668 0
M  V30 11 N 1.437270 3.553138 -0.186862 0
M  V30 12 C 0.036662 3.431532 -0.082160 0
M  V30 13 C -0.615069 4.090522 0.973742 0
M  V30 14 C -1.970014 4.092295 1.246337 0
M  V30 15 C -2.733025 3.362699 0.375162 0
M  V30 16 C -2.176087 2.687235 -0.683024 0
M  V30 17 C -3.062045 1.924110 -1.558134 0
M  V30 18 O -3.437143 1.987257 -2.746869 0
M  V30 19 N -3.615348 0.834163 -0.811854 0
M  V30 20 C -4.539397 -0.090412 -1.463491 0
M  V30 21 C -3.804517 -1.412750 -1.708806 0
M  V30 22 N -2.972316 -1.719618 -0.560315 0
M  V30 23 C -1.946411 -2.701866 -0.749091 0
M  V30 24 C -1.103766 -3.146681 0.255125 0
M  V30 25 C -0.127850 -4.088919 0.035271 0
M  V30 26 C 0.068519 -4.647205 -1.202931 0
M  V30 27 O 1.060082 -5.594397 -1.390443 0
M  V30 28 C 1.328005 -6.214144 -2.633489 0
M  V30 29 C -0.747927 -4.230762 -2.223059 0
M  V30 30 C -1.711710 -3.285620 -1.958419 0
M  V30 31 C -3.194656 -1.053018 0.700958 0
M  V30 32 C -3.435769 0.422170 0.556328 0
M  V30 33 C -0.818171 2.708543 -0.924907 0
M  V30 34 C 3.466699 1.340700 1.965380 0
M  V30 35 C 3.479325 0.290703 2.855150 0
M  V30 36 H 4.282650 -3.219275 6.130970 0
M  V30 37 H 3.192023 -4.036548 4.909330 0
M  V30 38 H 2.502892 -2.993864 6.197269 0
M  V30 39 H 4.539078 -1.713508 4.420795 0
M  V30 40 H 3.035288 -1.006932 5.156101 0
M  V30 41 H 1.639953 -2.018792 1.110840 0
M  V30 42 H 1.625991 -0.154324 -0.447667 0
M  V30 43 H 1.709788 4.568733 -0.058687 0
M  V30 44 H 0.014176 4.661947 1.646943 0
M  V30 45 H -2.333167 4.651060 2.101390 0
M  V30 46 H -3.799006 3.323706 0.534341 0
M  V30 47 H -4.835894 0.322380 -2.431736 0
M  V30 48 H -5.399982 -0.290319 -0.825385 0
M  V30 49 H -3.167988 -1.295422 -2.621782 0
M  V30 50 H -4.552658 -2.182573 -1.918834 0
M  V30 51 H -1.177103 -2.777627 1.257351 0
M  V30 52 H 0.523858 -4.420893 0.852375 0
M  V30 53 H 1.359711 -5.430831 -3.427723 0
M  V30 54 H 0.523514 -6.953693 -2.851891 0
M  V30 55 H 2.338019 -6.681545 -2.627049 0
M  V30 56 H -0.575662 -4.683779 -3.195649 0
M  V30 57 H -2.287588 -3.049143 -2.854757 0
M  V30 58 H -2.270474 -1.152961 1.341574 0
M  V30 59 H -4.029099 -1.522658 1.274401 0
M  V30 60 H -4.364755 0.664140 1.150588 0
M  V30 61 H -2.574439 1.004351 0.962413 0
M  V30 62 H -0.337610 2.195848 -1.739505 0
M  V30 63 H 3.944991 2.267505 2.154299 0
M  V30 64 H 3.989668 0.359915 3.810396 0
M  V30 END ATOM
M  V30 BEGIN BOND
M  V30 1 1 1 2
M  V30 2 1 2 3
M  V30 3 1 3 4
M  V30 4 2 4 5
M  V30 5 1 5 6
M  V30 6 2 6 7
M  V30 7 1 7 8
M  V30 8 2 8 9
M  V30 9 2 8 10
M  V30 10 1 8 11
M  V30 11 1 11 12
M  V30 12 2 12 13
M  V30 13 1 13 14
M  V30 14 2 14 15
M  V30 15 1 15 16
M  V30 16 1 16 17
M  V30 17 2 17 18
M  V30 18 1 17 19
M  V30 19 1 19 20
M  V30 20 1 20 21
M  V30 21 1 21 22
M  V30 22 1 22 23
M  V30 23 2 23 24
M  V30 24 1 24 25
M  V30 25 2 25 26
M  V30 26 1 26 27
M  V30 27 1 27 28
M  V30 28 1 26 29
M  V30 29 2 29 30
M  V30 30 1 22 31
M  V30 31 1 31 32
M  V30 32 2 16 33
M  V30 33 1 7 34
M  V30 34 2 34 35
M  V30 35 1 35 4
M  V30 36 1 33 12
M  V30 37 1 32 19
M  V30 38 1 30 23
M  V30 39 1 1 36
M  V30 40 1 1 37
M  V30 41 1 1 38
M  V30 42 1 2 39
M  V30 43 1 2 40
M  V30 44 1 5 41
M  V30 45 1 6 42
M  V30 46 1 11 43
M  V30 47 1 13 44
M  V30 48 1 14 45
M  V30 49 1 15 46
M  V30 50 1 20 47
M  V30 51 1 20 48
M  V30 52 1 21 49
M  V30 53 1 21 50
M  V30 54 1 24 51
M  V30 55 1 25 52
M  V30 56 1 28 53
M  V30 57 1 28 54
M  V30 58 1 28 55
M  V30 59 1 29 56
M  V30 60 1 30 57
M  V30 61 1 31 58
M  V30 62 1 31 59
M  V30 63 1 32 60
M  V30 64 1 32 61
M  V30 65 1 33 62
M  V30 66 1 34 63
M  V30 67 1 35 64
M  V30 END BOND
M  V30 END CTAB
M  END
>  <Dataset>  (83) 
ChEMBL_Kinases

>  <Ligand_Instance>  (83) 
nan

>  <PDB_ID>  (83) 
nan

>  <Standardized_SMILES>  (83) 
CCOc1ccc(S(=O)(=O)Nc2cccc(C(=O)N3CCN(c4ccc(OC)cc4)CC3)c2)cc1

>  <Name>  (83) 
nan

>  <Pocket>  (83) 
nan

>  <ATP_Site>  (83) 
nan

>  <Peripheral>  (83) 
nan

>  <Num_H_Atoms_ProtBoundConf>  (83) 
nan

>  <Num_Resolved_Atoms>  (83) 
nan

>  <Num_Not_Resolved_Atoms>  (83) 
nan

$$$$
CHEMBL1573081
     RDKit          3D

  0  0  0  0  0  0  0  0  0  0999 V3000
M  V30 BEGIN CTAB
M  V30 COUNTS 35 37 0 0 0
M  V30 BEGIN ATOM
M  V30 1 C -0.823311 -4.306645 2.589013 0
M  V30 2 C 0.540572 -3.802475 2.501704 0
M  V30 3 N 1.483304 -3.534200 3.265745 0
M  V30 4 N 2.617470 -3.086920 2.907692 0
M  V30 5 C 2.934286 -2.855111 1.711968 0
M  V30 6 S 4.307605 -2.270565 0.837033 0
M  V30 7 C 4.025376 -2.198367 -0.948665 0
M  V30 8 C 2.988567 -1.185453 -1.315987 0
M  V30 9 O 2.465863 -0.792369 -2.399244 0
M  V30 10 N 2.399567 -0.447230 -0.282032 0
M  V30 11 C 1.416856 0.572124 -0.151788 0
M  V30 12 N 1.631371 1.906410 -0.183953 0
M  V30 13 C 0.610558 2.776815 -0.045293 0
M  V30 14 C -0.682565 2.308140 0.133590 0
M  V30 15 C -0.914824 0.929930 0.168126 0
M  V30 16 N 0.151689 0.138624 0.023063 0
M  V30 17 C -2.271784 0.330648 0.355150 0
M  V30 18 C -3.316162 1.358466 0.062229 0
M  V30 19 C -3.035645 2.616595 0.839197 0
M  V30 20 C -1.798517 3.256822 0.284559 0
M  V30 21 O -1.566980 4.438876 -0.062537 0
M  V30 22 S 1.354521 -3.345350 0.846639 0
M  V30 23 H -1.311342 -4.233806 1.582073 0
M  V30 24 H -1.403335 -3.672767 3.292513 0
M  V30 25 H -0.813149 -5.366907 2.904931 0
M  V30 26 H 3.585834 -3.191715 -1.237662 0
M  V30 27 H 4.958057 -2.021530 -1.492135 0
M  V30 28 H 2.652305 -0.571494 0.736057 0
M  V30 29 H 0.819043 3.837978 -0.076655 0
M  V30 30 H -2.347178 -0.010351 1.413649 0
M  V30 31 H -2.389533 -0.558785 -0.275817 0
M  V30 32 H -3.314519 1.545010 -1.017838 0
M  V30 33 H -4.296936 0.956291 0.412698 0
M  V30 34 H -3.924895 3.274072 0.757900 0
M  V30 35 H -2.838006 2.333788 1.893366 0
M  V30 END ATOM
M  V30 BEGIN BOND
M  V30 1 1 1 2
M  V30 2 2 2 3
M  V30 3 1 3 4
M  V30 4 2 4 5
M  V30 5 1 5 6
M  V30 6 1 6 7
M  V30 7 1 7 8
M  V30 8 2 8 9
M  V30 9 1 8 10
M  V30 10 1 10 11
M  V30 11 2 11 12
M  V30 12 1 12 13
M  V30 13 2 13 14
M  V30 14 1 14 15
M  V30 15 2 15 16
M  V30 16 1 15 17
M  V30 17 1 17 18
M  V30 18 1 18 19
M  V30 19 1 19 20
M  V30 20 2 20 21
M  V30 21 1 5 22
M  V30 22 1 22 2
M  V30 23 1 16 11
M  V30 24 1 20 14
M  V30 25 1 1 23
M  V30 26 1 1 24
M  V30 27 1 1 25
M  V30 28 1 7 26
M  V30 29 1 7 27
M  V30 30 1 10 28
M  V30 31 1 13 29
M  V30 32 1 17 30
M  V30 33 1 17 31
M  V30 34 1 18 32
M  V30 35 1 18 33
M  V30 36 1 19 34
M  V30 37 1 19 35
M  V30 END BOND
M  V30 END CTAB
M  END
>  <Dataset>  (84) 
ChEMBL_Kinases

>  <Ligand_Instance>  (84) 
nan

>  <PDB_ID>  (84) 
nan

>  <Standardized_SMILES>  (84) 
Cc1nnc(SCC(=O)Nc2ncc3c(n2)CCCC3=O)s1

>  <Name>  (84) 
nan

>  <Pocket>  (84) 
nan

>  <ATP_Site>  (84) 
nan

>  <Peripheral>  (84) 
nan

>  <Num_H_Atoms_ProtBoundConf>  (84) 
nan

>  <Num_Resolved_Atoms>  (84) 
nan

>  <Num_Not_Resolved_Atoms>  (84) 
nan

$$$$
CHEMBL1573000
     RDKit          3D

  0  0  0  0  0  0  0  0  0  0999 V3000
M  V30 BEGIN CTAB
M  V30 COUNTS 33 35 0 0 0
M  V30 BEGIN ATOM
M  V30 1 O 1.036326 -1.455064 3.430169 0
M  V30 2 C 0.874691 -1.197935 2.201978 0
M  V30 3 N 1.543757 -1.724784 1.104885 0
M  V30 4 C 1.582424 -0.982894 0.049920 0
M  V30 5 N 2.201383 -1.288637 -1.195737 0
M  V30 6 C 2.184975 -2.626121 -1.662058 0
M  V30 7 C 2.826009 -3.689732 -1.065071 0
M  V30 8 C 2.797104 -5.015598 -1.570255 0
M  V30 9 C 2.011226 -4.952598 -2.730230 0
M  V30 10 C 1.340749 -4.013418 -3.416416 0
M  V30 11 N 1.478687 -2.803777 -2.788219 0
M  V30 12 S 0.692858 0.552840 0.446924 0
M  V30 13 C -0.186583 -0.180323 1.854472 0
M  V30 14 C -0.531169 0.750333 2.947620 0
M  V30 15 C -1.581250 1.676444 2.431883 0
M  V30 16 C -1.289256 3.017793 2.111184 0
M  V30 17 C -2.249768 3.893553 1.627948 0
M  V30 18 C -3.494898 3.320248 1.501231 0
M  V30 19 C -3.905599 2.045972 1.777405 0
M  V30 20 C -2.897839 1.223653 2.253990 0
M  V30 21 Cl -3.307052 -0.413553 2.641155 0
M  V30 22 H 2.614554 -0.460928 -1.666314 0
M  V30 23 H 3.386141 -3.493053 -0.155798 0
M  V30 24 H 3.287547 -5.841582 -1.118333 0
M  V30 25 H 1.940113 -5.966989 -3.177117 0
M  V30 26 H 0.797268 -4.233563 -4.316701 0
M  V30 27 H -1.085777 -0.716110 1.446798 0
M  V30 28 H -0.947835 0.178696 3.794067 0
M  V30 29 H 0.310680 1.385850 3.289894 0
M  V30 30 H -0.271523 3.329223 2.261941 0
M  V30 31 H -2.046336 4.912513 1.380034 0
M  V30 32 H -4.240342 4.014284 1.124637 0
M  V30 33 H -4.930286 1.773184 1.619223 0
M  V30 END ATOM
M  V30 BEGIN BOND
M  V30 1 2 1 2
M  V30 2 1 2 3
M  V30 3 2 3 4
M  V30 4 1 4 5
M  V30 5 1 5 6
M  V30 6 2 6 7
M  V30 7 1 7 8
M  V30 8 2 8 9
M  V30 9 1 9 10
M  V30 10 2 10 11
M  V30 11 1 4 12
M  V30 12 1 12 13
M  V30 13 1 13 14
M  V30 14 1 14 15
M  V30 15 2 15 16
M  V30 16 1 16 17
M  V30 17 2 17 18
M  V30 18 1 18 19
M  V30 19 2 19 20
M  V30 20 1 20 21
M  V30 21 1 13 2
M  V30 22 1 20 15
M  V30 23 1 11 6
M  V30 24 1 5 22
M  V30 25 1 7 23
M  V30 26 1 8 24
M  V30 27 1 9 25
M  V30 28 1 10 26
M  V30 29 1 13 27
M  V30 30 1 14 28
M  V30 31 1 14 29
M  V30 32 1 16 30
M  V30 33 1 17 31
M  V30 34 1 18 32
M  V30 35 1 19 33
M  V30 END BOND
M  V30 END CTAB
M  END
>  <Dataset>  (85) 
ChEMBL_Kinases

>  <Ligand_Instance>  (85) 
nan

>  <PDB_ID>  (85) 
nan

>  <Standardized_SMILES>  (85) 
O=C1N=C(Nc2ccccn2)SC1Cc1ccccc1Cl

>  <Name>  (85) 
nan

>  <Pocket>  (85) 
nan

>  <ATP_Site>  (85) 
nan

>  <Peripheral>  (85) 
nan

>  <Num_H_Atoms_ProtBoundConf>  (85) 
nan

>  <Num_Resolved_Atoms>  (85) 
nan

>  <Num_Not_Resolved_Atoms>  (85) 
nan

$$$$
CHEMBL1572983
     RDKit          3D

  0  0  0  0  0  0  0  0  0  0999 V3000
M  V30 BEGIN CTAB
M  V30 COUNTS 39 40 0 0 0
M  V30 BEGIN ATOM
M  V30 1 C -1.637533 -2.202692 1.589293 0
M  V30 2 C -1.453040 -1.986221 0.110638 0
M  V30 3 C -1.244758 -3.346085 -0.521508 0
M  V30 4 C 0.032733 -3.981813 -0.079496 0
M  V30 5 C 1.133626 -2.980427 0.168358 0
M  V30 6 C 0.823607 -1.797982 -0.751309 0
M  V30 7 C 2.065284 -1.007843 -0.928084 0
M  V30 8 N -0.301768 -1.125505 -0.191861 0
M  V30 9 C -0.329479 0.252451 0.058770 0
M  V30 10 C 0.106371 0.980308 -0.934875 0
M  V30 11 Cl 0.660707 2.101899 -2.172835 0
M  V30 12 Cl 0.303570 2.700217 -1.201203 0
M  V30 13 C -0.717255 1.146549 1.143543 0
M  V30 14 C 0.183581 1.949536 1.674263 0
M  V30 15 S 1.913390 2.234911 1.362479 0
M  V30 16 C 2.598968 2.506902 2.986423 0
M  V30 17 C 1.573345 3.113409 3.866743 0
M  V30 18 S 0.003527 3.131641 2.989711 0
M  V30 19 N -2.030240 1.211337 1.677841 0 CHG=1 VAL=4
M  V30 20 O -2.794419 1.682314 0.796254 0
M  V30 21 O -2.819975 0.971386 2.767404 0 CHG=-1 VAL=1
M  V30 22 H -2.694161 -2.321951 1.870575 0
M  V30 23 H -1.110262 -3.134197 1.878978 0
M  V30 24 H -1.125324 -1.395352 2.148961 0
M  V30 25 H -2.345036 -1.506738 -0.344769 0
M  V30 26 H -1.352911 -3.317533 -1.621702 0
M  V30 27 H -2.089006 -3.988370 -0.163325 0
M  V30 28 H 0.392770 -4.651524 -0.892498 0
M  V30 29 H -0.109973 -4.572673 0.836129 0
M  V30 30 H 2.142541 -3.364163 -0.078949 0
M  V30 31 H 1.115694 -2.568128 1.186163 0
M  V30 32 H 0.545565 -2.221736 -1.748740 0
M  V30 33 H 2.088385 -0.526985 -1.944342 0
M  V30 34 H 2.345394 -0.334075 -0.121967 0
M  V30 35 H 2.905306 -1.761229 -0.993977 0
M  V30 36 H 3.092719 1.621905 3.432346 0
M  V30 37 H 3.430319 3.259833 2.860183 0
M  V30 38 H 1.862597 4.104695 4.242732 0
M  V30 39 H 1.422106 2.483127 4.789766 0
M  V30 END ATOM
M  V30 BEGIN BOND
M  V30 1 1 1 2
M  V30 2 1 2 3
M  V30 3 1 3 4
M  V30 4 1 4 5
M  V30 5 1 5 6
M  V30 6 1 6 7
M  V30 7 1 6 8
M  V30 8 1 8 9
M  V30 9 2 9 10 CFG=2
M  V30 10 1 10 11
M  V30 11 1 10 12
M  V30 12 1 9 13
M  V30 13 2 13 14 CFG=2
M  V30 14 1 14 15
M  V30 15 1 15 16
M  V30 16 1 16 17
M  V30 17 1 17 18
M  V30 18 1 13 19
M  V30 19 2 19 20
M  V30 20 1 19 21
M  V30 21 1 8 2
M  V30 22 1 18 14
M  V30 23 1 1 22
M  V30 24 1 1 23
M  V30 25 1 1 24
M  V30 26 1 2 25
M  V30 27 1 3 26
M  V30 28 1 3 27
M  V30 29 1 4 28
M  V30 30 1 4 29
M  V30 31 1 5 30
M  V30 32 1 5 31
M  V30 33 1 6 32
M  V30 34 1 7 33
M  V30 35 1 7 34
M  V30 36 1 7 35
M  V30 37 1 16 36
M  V30 38 1 16 37
M  V30 39 1 17 38
M  V30 40 1 17 39
M  V30 END BOND
M  V30 END CTAB
M  END
>  <Dataset>  (86) 
ChEMBL_Kinases

>  <Ligand_Instance>  (86) 
nan

>  <PDB_ID>  (86) 
nan

>  <Standardized_SMILES>  (86) 
CC1CCCC(C)N1C(=C(Cl)Cl)C(=C1SCCS1)[N+](=O)[O-]

>  <Name>  (86) 
nan

>  <Pocket>  (86) 
nan

>  <ATP_Site>  (86) 
nan

>  <Peripheral>  (86) 
nan

>  <Num_H_Atoms_ProtBoundConf>  (86) 
nan

>  <Num_Resolved_Atoms>  (86) 
nan

>  <Num_Not_Resolved_Atoms>  (86) 
nan

$$$$
CHEMBL1572808
     RDKit          3D

  0  0  0  0  0  0  0  0  0  0999 V3000
M  V30 BEGIN CTAB
M  V30 COUNTS 57 59 0 0 0
M  V30 BEGIN ATOM
M  V30 1 C 3.077312 -4.758509 6.247469 0
M  V30 2 O 2.514251 -3.645024 5.579129 0
M  V30 3 C 3.350429 -2.939385 4.722333 0
M  V30 4 C 4.668716 -3.333395 4.552024 0
M  V30 5 C 5.476690 -2.621144 3.701373 0
M  V30 6 C 5.012270 -1.526982 3.014496 0
M  V30 7 C 3.704608 -1.097733 3.154258 0
M  V30 8 C 3.299687 0.068114 2.399203 0
M  V30 9 C 2.198190 0.775085 2.349925 0
M  V30 10 C 1.807923 1.921606 1.598421 0
M  V30 11 O 0.677877 2.484068 1.711930 0
M  V30 12 O 2.360940 2.759301 0.619631 0
M  V30 13 C 1.588921 3.833254 0.102821 0
M  V30 14 C 0.401842 3.408939 -0.662184 0
M  V30 15 O -0.391244 4.266911 -1.166355 0
M  V30 16 N 0.070053 2.050843 -0.888290 0
M  V30 17 C -0.972537 1.360752 -1.549021 0
M  V30 18 C -2.080613 1.028311 -0.829207 0
M  V30 19 C -3.122747 0.347182 -1.440675 0
M  V30 20 C -3.099429 -0.018436 -2.757966 0
M  V30 21 N -4.149169 -0.715377 -3.397358 0
M  V30 22 C -5.394146 -1.088252 -2.765214 0
M  V30 23 C -5.455450 -2.614209 -2.785828 0
M  V30 24 O -5.575038 -3.001098 -4.101416 0
M  V30 25 C -4.445440 -2.662199 -4.848492 0
M  V30 26 C -4.162222 -1.174855 -4.753562 0
M  V30 27 C -1.967374 0.331633 -3.458421 0
M  V30 28 C -0.905763 1.012462 -2.881131 0
M  V30 29 C 2.941900 -1.828036 4.000656 0
M  V30 30 O 1.609611 -1.526163 4.242121 0
M  V30 31 C 0.584872 -2.163229 3.465183 0
M  V30 32 H 2.407223 -5.124708 7.064095 0
M  V30 33 H 3.339278 -5.598333 5.583903 0
M  V30 34 H 3.995603 -4.406758 6.774623 0
M  V30 35 H 5.079078 -4.174917 5.062040 0
M  V30 36 H 6.506315 -2.943659 3.580471 0
M  V30 37 H 5.735005 -1.029986 2.361864 0
M  V30 38 H 4.020643 0.520672 1.729797 0
M  V30 39 H 1.436102 0.429585 3.026411 0
M  V30 40 H 1.302028 4.562517 0.896203 0
M  V30 41 H 2.258895 4.383289 -0.592422 0
M  V30 42 H 0.620507 1.222150 -0.584003 0
M  V30 43 H -2.138459 1.301412 0.226223 0
M  V30 44 H -3.958314 0.123462 -0.799879 0
M  V30 45 H -5.516240 -0.703653 -1.736849 0
M  V30 46 H -6.233411 -0.729660 -3.405895 0
M  V30 47 H -4.573593 -3.064427 -2.277074 0
M  V30 48 H -6.363102 -2.935322 -2.240293 0
M  V30 49 H -3.567143 -3.271612 -4.563989 0
M  V30 50 H -4.680793 -2.874863 -5.914377 0
M  V30 51 H -3.255828 -0.969970 -5.333706 0
M  V30 52 H -5.027939 -0.652593 -5.258892 0
M  V30 53 H -1.792643 0.119512 -4.499363 0
M  V30 54 H -0.004276 1.296245 -3.415487 0
M  V30 55 H 0.695707 -2.012429 2.393084 0
M  V30 56 H 0.528924 -3.233315 3.683309 0
M  V30 57 H -0.376473 -1.680828 3.755442 0
M  V30 END ATOM
M  V30 BEGIN BOND
M  V30 1 1 1 2
M  V30 2 1 2 3
M  V30 3 2 3 4
M  V30 4 1 4 5
M  V30 5 2 5 6
M  V30 6 1 6 7
M  V30 7 1 7 8
M  V30 8 2 8 9
M  V30 9 1 9 10
M  V30 10 2 10 11
M  V30 11 1 10 12
M  V30 12 1 12 13
M  V30 13 1 13 14
M  V30 14 2 14 15
M  V30 15 1 14 16
M  V30 16 1 16 17
M  V30 17 2 17 18
M  V30 18 1 18 19
M  V30 19 2 19 20
M  V30 20 1 20 21
M  V30 21 1 21 22
M  V30 22 1 22 23
M  V30 23 1 23 24
M  V30 24 1 24 25
M  V30 25 1 25 26
M  V30 26 1 20 27
M  V30 27 2 27 28
M  V30 28 2 7 29
M  V30 29 1 29 30
M  V30 30 1 30 31
M  V30 31 1 29 3
M  V30 32 1 28 17
M  V30 33 1 26 21
M  V30 34 1 1 32
M  V30 35 1 1 33
M  V30 36 1 1 34
M  V30 37 1 4 35
M  V30 38 1 5 36
M  V30 39 1 6 37
M  V30 40 1 8 38
M  V30 41 1 9 39
M  V30 42 1 13 40
M  V30 43 1 13 41
M  V30 44 1 16 42
M  V30 45 1 18 43
M  V30 46 1 19 44
M  V30 47 1 22 45
M  V30 48 1 22 46
M  V30 49 1 23 47
M  V30 50 1 23 48
M  V30 51 1 25 49
M  V30 52 1 25 50
M  V30 53 1 26 51
M  V30 54 1 26 52
M  V30 55 1 27 53
M  V30 56 1 28 54
M  V30 57 1 31 55
M  V30 58 1 31 56
M  V30 59 1 31 57
M  V30 END BOND
M  V30 END CTAB
M  END
>  <Dataset>  (87) 
ChEMBL_Kinases

>  <Ligand_Instance>  (87) 
nan

>  <PDB_ID>  (87) 
nan

>  <Standardized_SMILES>  (87) 
COc1cccc(/C=C/C(=O)OCC(=O)Nc2ccc(N3CCOCC3)cc2)c1OC

>  <Name>  (87) 
nan

>  <Pocket>  (87) 
nan

>  <ATP_Site>  (87) 
nan

>  <Peripheral>  (87) 
nan

>  <Num_H_Atoms_ProtBoundConf>  (87) 
nan

>  <Num_Resolved_Atoms>  (87) 
nan

>  <Num_Not_Resolved_Atoms>  (87) 
nan

$$$$
CHEMBL1572637
     RDKit          3D

  0  0  0  0  0  0  0  0  0  0999 V3000
M  V30 BEGIN CTAB
M  V30 COUNTS 47 50 0 0 0
M  V30 BEGIN ATOM
M  V30 1 C 2.404236 -8.075647 1.070737 0
M  V30 2 O 2.829561 -7.178554 0.035127 0
M  V30 3 C 2.549206 -5.822457 0.146808 0
M  V30 4 C 2.929204 -4.903919 -0.812754 0
M  V30 5 C 2.669874 -3.548627 -0.739030 0
M  V30 6 C 1.987802 -3.059328 0.356500 0
M  V30 7 N 1.640705 -1.699405 0.588320 0
M  V30 8 C 0.327143 -1.402002 0.506575 0
M  V30 9 C -0.763439 -2.337548 0.204843 0
M  V30 10 N -0.046472 -0.124646 0.719225 0
M  V30 11 C 0.834092 0.853529 1.006915 0
M  V30 12 C 2.184543 0.545377 1.090483 0
M  V30 13 C 2.846093 1.721045 1.393789 0
M  V30 14 N 1.921014 2.694658 1.487350 0
M  V30 15 N 0.702831 2.185259 1.256250 0
M  V30 16 C -0.574989 2.827639 1.246566 0
M  V30 17 C -1.271545 2.647710 2.445157 0
M  V30 18 C -2.530562 3.201856 2.614543 0
M  V30 19 C -3.107328 3.937976 1.596923 0
M  V30 20 C -4.460711 4.533757 1.778769 0
M  V30 21 C -2.406852 4.104874 0.423484 0
M  V30 22 C -2.964856 4.882928 -0.710606 0
M  V30 23 C -1.155874 3.564498 0.231939 0
M  V30 24 C 2.578573 -0.774108 0.871684 0
M  V30 25 O 3.777651 -1.067545 0.941964 0
M  V30 26 C 1.585407 -3.936434 1.344601 0
M  V30 27 C 1.858982 -5.302186 1.248066 0
M  V30 28 H 2.954891 -9.028806 1.017407 0
M  V30 29 H 1.318096 -8.221447 1.066585 0
M  V30 30 H 2.675894 -7.648815 2.076539 0
M  V30 31 H 3.469507 -5.249291 -1.692958 0
M  V30 32 H 2.963939 -2.834849 -1.482478 0
M  V30 33 H -0.416080 -3.363393 -0.001074 0
M  V30 34 H -1.508306 -2.273166 1.024178 0
M  V30 35 H -1.253671 -1.977384 -0.741330 0
M  V30 36 H 3.918474 1.820739 1.528249 0
M  V30 37 H -0.915468 2.090100 3.307693 0
M  V30 38 H -3.102291 3.076875 3.546716 0
M  V30 39 H -4.425588 5.630610 1.954310 0
M  V30 40 H -5.099810 4.389460 0.863128 0
M  V30 41 H -4.957705 3.985245 2.609622 0
M  V30 42 H -3.687795 5.600132 -0.263661 0
M  V30 43 H -2.199476 5.374381 -1.322858 0
M  V30 44 H -3.512355 4.137802 -1.347561 0
M  V30 45 H -0.541502 3.646764 -0.651639 0
M  V30 46 H 1.038951 -3.604050 2.239748 0
M  V30 47 H 1.526095 -5.963877 2.046755 0
M  V30 END ATOM
M  V30 BEGIN BOND
M  V30 1 1 1 2
M  V30 2 1 2 3
M  V30 3 2 3 4
M  V30 4 1 4 5
M  V30 5 2 5 6
M  V30 6 1 6 7
M  V30 7 1 7 8
M  V30 8 1 8 9
M  V30 9 2 8 10
M  V30 10 1 10 11
M  V30 11 2 11 12
M  V30 12 1 12 13
M  V30 13 2 13 14
M  V30 14 1 14 15
M  V30 15 1 15 16
M  V30 16 2 16 17
M  V30 17 1 17 18
M  V30 18 2 18 19
M  V30 19 1 19 20
M  V30 20 1 19 21
M  V30 21 1 21 22
M  V30 22 2 21 23
M  V30 23 1 12 24
M  V30 24 2 24 25
M  V30 25 1 6 26
M  V30 26 2 26 27
M  V30 27 1 27 3
M  V30 28 1 24 7
M  V30 29 1 15 11
M  V30 30 1 23 16
M  V30 31 1 1 28
M  V30 32 1 1 29
M  V30 33 1 1 30
M  V30 34 1 4 31
M  V30 35 1 5 32
M  V30 36 1 9 33
M  V30 37 1 9 34
M  V30 38 1 9 35
M  V30 39 1 13 36
M  V30 40 1 17 37
M  V30 41 1 18 38
M  V30 42 1 20 39
M  V30 43 1 20 40
M  V30 44 1 20 41
M  V30 45 1 22 42
M  V30 46 1 22 43
M  V30 47 1 22 44
M  V30 48 1 23 45
M  V30 49 1 26 46
M  V30 50 1 27 47
M  V30 END BOND
M  V30 END CTAB
M  END
>  <Dataset>  (88) 
ChEMBL_Kinases

>  <Ligand_Instance>  (88) 
nan

>  <PDB_ID>  (88) 
nan

>  <Standardized_SMILES>  (88) 
COc1ccc(-n2c(C)nc3c(cnn3-c3ccc(C)c(C)c3)c2=O)cc1

>  <Name>  (88) 
nan

>  <Pocket>  (88) 
nan

>  <ATP_Site>  (88) 
nan

>  <Peripheral>  (88) 
nan

>  <Num_H_Atoms_ProtBoundConf>  (88) 
nan

>  <Num_Resolved_Atoms>  (88) 
nan

>  <Num_Not_Resolved_Atoms>  (88) 
nan

$$$$
CHEMBL1572538
     RDKit          3D

  0  0  0  0  0  0  0  0  0  0999 V3000
M  V30 BEGIN CTAB
M  V30 COUNTS 34 36 0 0 0
M  V30 BEGIN ATOM
M  V30 1 C -1.998289 -0.985845 2.870868 0
M  V30 2 C -0.846989 -1.423879 2.038774 0
M  V30 3 C -0.559410 -2.747878 1.780582 0
M  V30 4 C 0.518023 -3.152155 1.002109 0
M  V30 5 C 0.838347 -4.555928 0.717460 0
M  V30 6 N 1.331821 -2.217345 0.465528 0
M  V30 7 N 2.423122 -2.214342 -0.305866 0
M  V30 8 C 2.818146 -0.931704 -0.531965 0
M  V30 9 N 3.971853 -0.715333 -1.338634 0
M  V30 10 C 1.944750 -0.084836 0.120606 0
M  V30 11 N 2.163547 1.296068 0.023163 0
M  V30 12 N 1.308516 2.196037 -0.109054 0
M  V30 13 C -0.093627 2.019886 -0.191273 0
M  V30 14 C -0.745444 2.660111 0.854151 0
M  V30 15 C -2.127844 2.624471 0.980224 0
M  V30 16 C -2.871202 1.923845 0.025372 0
M  V30 17 C -2.217783 1.292978 -1.006218 0
M  V30 18 C -0.843561 1.332022 -1.126119 0
M  V30 19 C 1.042335 -0.928024 0.723632 0
M  V30 20 N -0.009506 -0.505891 1.484749 0
M  V30 21 H -1.626717 -0.604570 3.866872 0
M  V30 22 H -2.606599 -1.894963 3.099582 0
M  V30 23 H -2.610926 -0.191677 2.380759 0
M  V30 24 H -1.197101 -3.507892 2.199903 0
M  V30 25 H 1.945572 -4.732233 0.755588 0
M  V30 26 H 0.274940 -5.275356 1.345090 0
M  V30 27 H 0.546586 -4.773702 -0.332583 0
M  V30 28 H 4.912115 -0.731473 -0.866291 0
M  V30 29 H 4.231895 -0.530993 -2.316174 0
M  V30 30 H -0.288505 3.232208 1.653322 0
M  V30 31 H -2.691829 3.099992 1.767075 0
M  V30 32 H -3.953098 1.883698 0.105653 0
M  V30 33 H -2.749186 0.729532 -1.782736 0
M  V30 34 H -0.235557 0.871686 -1.895905 0
M  V30 END ATOM
M  V30 BEGIN BOND
M  V30 1 1 1 2
M  V30 2 1 2 3
M  V30 3 2 3 4
M  V30 4 1 4 5
M  V30 5 1 4 6
M  V30 6 1 6 7
M  V30 7 2 7 8
M  V30 8 1 8 9
M  V30 9 1 8 10
M  V30 10 1 10 11
M  V30 11 2 11 12 CFG=2
M  V30 12 1 12 13
M  V30 13 2 13 14
M  V30 14 1 14 15
M  V30 15 2 15 16
M  V30 16 1 16 17
M  V30 17 2 17 18
M  V30 18 2 10 19
M  V30 19 1 19 20
M  V30 20 2 20 2
M  V30 21 1 19 6
M  V30 22 1 18 13
M  V30 23 1 1 21
M  V30 24 1 1 22
M  V30 25 1 1 23
M  V30 26 1 3 24
M  V30 27 1 5 25
M  V30 28 1 5 26
M  V30 29 1 5 27
M  V30 30 1 9 28
M  V30 31 1 9 29
M  V30 32 1 14 30
M  V30 33 1 15 31
M  V30 34 1 16 32
M  V30 35 1 17 33
M  V30 36 1 18 34
M  V30 END BOND
M  V30 END CTAB
M  END
>  <Dataset>  (89) 
ChEMBL_Kinases

>  <Ligand_Instance>  (89) 
nan

>  <PDB_ID>  (89) 
nan

>  <Standardized_SMILES>  (89) 
Cc1cc(C)n2nc(N)c(N=Nc3ccccc3)c2n1

>  <Name>  (89) 
nan

>  <Pocket>  (89) 
nan

>  <ATP_Site>  (89) 
nan

>  <Peripheral>  (89) 
nan

>  <Num_H_Atoms_ProtBoundConf>  (89) 
nan

>  <Num_Resolved_Atoms>  (89) 
nan

>  <Num_Not_Resolved_Atoms>  (89) 
nan

$$$$
CHEMBL1572342
     RDKit          3D

  0  0  0  0  0  0  0  0  0  0999 V3000
M  V30 BEGIN CTAB
M  V30 COUNTS 36 37 0 0 0
M  V30 BEGIN ATOM
M  V30 1 C -1.331612 -5.119035 1.802045 0
M  V30 2 C -2.098024 -3.890734 2.238960 0
M  V30 3 C -1.366927 -3.145519 3.337997 0
M  V30 4 C -0.009515 -2.672796 2.934930 0
M  V30 5 C -0.016776 -1.747837 1.787751 0
M  V30 6 O -1.001175 -1.305575 1.107303 0
M  V30 7 N 1.226517 -1.243873 1.330462 0
M  V30 8 C 1.270895 -0.338332 0.214287 0
M  V30 9 S 1.422892 -0.914251 -1.409617 0
M  V30 10 C 1.408330 0.715811 -2.201590 0
M  V30 11 C 1.282413 1.612688 -1.102485 0
M  V30 12 C 1.213900 1.026316 0.136417 0
M  V30 13 C 1.083400 1.772025 1.381305 0
M  V30 14 N 1.011237 3.189595 1.467794 0
M  V30 15 O 1.024813 1.201442 2.482281 0
M  V30 16 C 1.270572 2.969529 -1.711996 0
M  V30 17 C 0.614093 2.695952 -3.046745 0
M  V30 18 C 1.462288 1.502208 -3.477130 0
M  V30 19 H -0.851136 -4.944215 0.798264 0
M  V30 20 H -2.011665 -5.992586 1.714434 0
M  V30 21 H -0.503600 -5.317248 2.502282 0
M  V30 22 H -3.059541 -4.239510 2.669426 0
M  V30 23 H -2.257803 -3.266066 1.338223 0
M  V30 24 H -1.235592 -3.878441 4.159991 0
M  V30 25 H -1.983256 -2.322601 3.741458 0
M  V30 26 H 0.578281 -3.578037 2.607716 0
M  V30 27 H 0.504366 -2.284148 3.814528 0
M  V30 28 H 2.125128 -1.485703 1.751012 0
M  V30 29 H 0.016417 3.430343 1.218795 0
M  V30 30 H 1.654368 3.972966 1.698882 0
M  V30 31 H 0.702419 3.702139 -1.115543 0
M  V30 32 H 2.334374 3.246399 -1.843034 0
M  V30 33 H 0.647512 3.535568 -3.743925 0
M  V30 34 H -0.388957 2.291805 -2.827166 0
M  V30 35 H 2.501048 1.759555 -3.668990 0
M  V30 36 H 0.973982 0.935293 -4.293336 0
M  V30 END ATOM
M  V30 BEGIN BOND
M  V30 1 1 1 2
M  V30 2 1 2 3
M  V30 3 1 3 4
M  V30 4 1 4 5
M  V30 5 2 5 6
M  V30 6 1 5 7
M  V30 7 1 7 8
M  V30 8 1 8 9
M  V30 9 1 9 10
M  V30 10 2 10 11
M  V30 11 1 11 12
M  V30 12 1 12 13
M  V30 13 1 13 14
M  V30 14 2 13 15
M  V30 15 1 11 16
M  V30 16 1 16 17
M  V30 17 1 17 18
M  V30 18 2 12 8
M  V30 19 1 18 10
M  V30 20 1 1 19
M  V30 21 1 1 20
M  V30 22 1 1 21
M  V30 23 1 2 22
M  V30 24 1 2 23
M  V30 25 1 3 24
M  V30 26 1 3 25
M  V30 27 1 4 26
M  V30 28 1 4 27
M  V30 29 1 7 28
M  V30 30 1 14 29
M  V30 31 1 14 30
M  V30 32 1 16 31
M  V30 33 1 16 32
M  V30 34 1 17 33
M  V30 35 1 17 34
M  V30 36 1 18 35
M  V30 37 1 18 36
M  V30 END BOND
M  V30 END CTAB
M  END
>  <Dataset>  (90) 
ChEMBL_Kinases

>  <Ligand_Instance>  (90) 
nan

>  <PDB_ID>  (90) 
nan

>  <Standardized_SMILES>  (90) 
CCCCC(=O)Nc1sc2c(c1C(N)=O)CCC2

>  <Name>  (90) 
nan

>  <Pocket>  (90) 
nan

>  <ATP_Site>  (90) 
nan

>  <Peripheral>  (90) 
nan

>  <Num_H_Atoms_ProtBoundConf>  (90) 
nan

>  <Num_Resolved_Atoms>  (90) 
nan

>  <Num_Not_Resolved_Atoms>  (90) 
nan

$$$$
CHEMBL1572239
     RDKit          3D

  0  0  0  0  0  0  0  0  0  0999 V3000
M  V30 BEGIN CTAB
M  V30 COUNTS 73 76 0 0 0
M  V30 BEGIN ATOM
M  V30 1 C 7.068294 -0.457801 2.883181 0
M  V30 2 C 6.075664 0.688071 3.098529 0
M  V30 3 C 4.751045 0.372389 2.463163 0
M  V30 4 C 4.417509 0.992694 1.252657 0
M  V30 5 C 3.180698 0.679278 0.674793 0
M  V30 6 C 2.292063 -0.222807 1.271708 0
M  V30 7 N 2.656201 -0.782995 2.419864 0
M  V30 8 C 3.843023 -0.505985 3.010634 0
M  V30 9 C 4.161997 -1.177607 4.300517 0
M  V30 10 C 3.963571 -0.126957 5.393848 0
M  V30 11 C 1.004983 -0.471449 0.522919 0
M  V30 12 C 1.389065 -0.204717 -0.946392 0
M  V30 13 N 1.658055 1.162335 -1.135934 0
M  V30 14 C 0.805412 2.166578 -0.682740 0
M  V30 15 C -0.492775 2.480636 -1.274835 0
M  V30 16 C -1.574099 1.532581 -1.365656 0
M  V30 17 C -1.738643 0.270974 -2.132729 0
M  V30 18 N -2.641620 1.761237 -0.674535 0
M  V30 19 O -3.716612 0.961456 -0.671084 0
M  V30 20 C -4.477942 0.511182 0.416741 0
M  V30 21 C -5.663161 -0.308507 0.080806 0 CFG=1
M  V30 22 O -6.518121 0.470888 -0.728132 0
M  V30 23 C -5.484704 -1.670328 -0.444771 0 CFG=2
M  V30 24 O -4.642895 -2.468642 0.321065 0
M  V30 25 C -4.190574 -3.495368 -0.478850 0 CFG=2
M  V30 26 O -2.813051 -3.579856 -0.349029 0
M  V30 27 C -2.379382 -3.878600 -1.648166 0
M  V30 28 C -0.908306 -3.617144 -1.713235 0
M  V30 29 C -2.708881 -5.289588 -2.050277 0
M  V30 30 O -3.112605 -3.013296 -2.480421 0
M  V30 31 C -4.372547 -3.123904 -1.912189 0 CFG=2
M  V30 32 C -5.156265 -1.842611 -1.881931 0 CFG=1
M  V30 33 O -6.317178 -2.078148 -2.661326 0
M  V30 34 C 2.990869 1.444688 -0.612177 0
M  V30 35 H 7.897962 -0.170223 2.198998 0
M  V30 36 H 6.510430 -1.270904 2.364052 0
M  V30 37 H 7.429515 -0.846908 3.842342 0
M  V30 38 H 6.515906 1.566640 2.571665 0
M  V30 39 H 5.987942 0.953453 4.158902 0
M  V30 40 H 5.140970 1.666268 0.856380 0
M  V30 41 H 3.414797 -1.992518 4.503139 0
M  V30 42 H 5.192647 -1.524068 4.345625 0
M  V30 43 H 4.870166 -0.023752 6.040762 0
M  V30 44 H 3.735386 0.871603 4.967468 0
M  V30 45 H 3.079991 -0.382493 6.043767 0
M  V30 46 H 0.680685 -1.513467 0.604181 0
M  V30 47 H 0.194105 0.176889 0.869569 0
M  V30 48 H 0.793887 -0.751628 -1.660895 0
M  V30 49 H 2.401265 -0.747875 -1.011921 0
M  V30 50 H 1.414868 3.139480 -0.756622 0
M  V30 51 H 0.680405 2.138998 0.467203 0
M  V30 52 H -0.356075 2.896459 -2.346653 0
M  V30 53 H -0.887920 3.427261 -0.769204 0
M  V30 54 H -2.720776 0.321814 -2.696841 0
M  V30 55 H -0.953700 0.210907 -2.940412 0
M  V30 56 H -1.686069 -0.639778 -1.520378 0
M  V30 57 H -4.891962 1.452945 0.890364 0
M  V30 58 H -3.851833 0.088113 1.239756 0
M  V30 59 H -6.254100 -0.409527 1.043555 0
M  V30 60 H -6.715588 1.288481 -0.167113 0
M  V30 61 H -6.493996 -2.177717 -0.312993 0
M  V30 62 H -4.722851 -4.446122 -0.243936 0
M  V30 63 H -0.544505 -2.885569 -0.948700 0
M  V30 64 H -0.584230 -3.233865 -2.701922 0
M  V30 65 H -0.333727 -4.566111 -1.496777 0
M  V30 66 H -1.773837 -5.823394 -2.339533 0
M  V30 67 H -3.171482 -5.867671 -1.211939 0
M  V30 68 H -3.367025 -5.326948 -2.948005 0
M  V30 69 H -4.896478 -3.953902 -2.466601 0
M  V30 70 H -4.674237 -0.995945 -2.361380 0
M  V30 71 H -6.039395 -1.988245 -3.606687 0
M  V30 72 H 3.742860 1.129810 -1.362225 0
M  V30 73 H 3.127648 2.525203 -0.439880 0
M  V30 END ATOM
M  V30 BEGIN BOND
M  V30 1 1 1 2
M  V30 2 1 2 3
M  V30 3 2 3 4
M  V30 4 1 4 5
M  V30 5 2 5 6
M  V30 6 1 6 7
M  V30 7 2 7 8
M  V30 8 1 8 9
M  V30 9 1 9 10
M  V30 10 1 6 11
M  V30 11 1 11 12
M  V30 12 1 12 13
M  V30 13 1 13 14
M  V30 14 1 14 15
M  V30 15 1 15 16
M  V30 16 1 16 17
M  V30 17 2 16 18
M  V30 18 1 18 19
M  V30 19 1 19 20
M  V30 20 1 20 21
M  V30 21 1 21 22
M  V30 22 1 21 23
M  V30 23 1 23 24
M  V30 24 1 24 25
M  V30 25 1 25 26
M  V30 26 1 26 27
M  V30 27 1 27 28
M  V30 28 1 27 29
M  V30 29 1 27 30
M  V30 30 1 30 31
M  V30 31 1 31 32
M  V30 32 1 32 33
M  V30 33 1 13 34
M  V30 34 1 8 3
M  V30 35 1 32 23
M  V30 36 1 34 5
M  V30 37 1 31 25
M  V30 38 1 1 35
M  V30 39 1 1 36
M  V30 40 1 1 37
M  V30 41 1 2 38
M  V30 42 1 2 39
M  V30 43 1 4 40
M  V30 44 1 9 41
M  V30 45 1 9 42
M  V30 46 1 10 43
M  V30 47 1 10 44
M  V30 48 1 10 45
M  V30 49 1 11 46
M  V30 50 1 11 47
M  V30 51 1 12 48
M  V30 52 1 12 49
M  V30 53 1 14 50
M  V30 54 1 14 51
M  V30 55 1 15 52
M  V30 56 1 15 53
M  V30 57 1 17 54
M  V30 58 1 17 55
M  V30 59 1 17 56
M  V30 60 1 20 57
M  V30 61 1 20 58
M  V30 62 1 21 59 CFG=1
M  V30 63 1 22 60
M  V30 64 1 23 61 CFG=3
M  V30 65 1 25 62 CFG=1
M  V30 66 1 28 63
M  V30 67 1 28 64
M  V30 68 1 28 65
M  V30 69 1 29 66
M  V30 70 1 29 67
M  V30 71 1 29 68
M  V30 72 1 31 69 CFG=3
M  V30 73 1 32 70 CFG=3
M  V30 74 1 33 71
M  V30 75 1 34 72
M  V30 76 1 34 73
M  V30 END BOND
M  V30 END CTAB
M  END
>  <Dataset>  (91) 
ChEMBL_Kinases

>  <Ligand_Instance>  (91) 
nan

>  <PDB_ID>  (91) 
nan

>  <Standardized_SMILES>  (91) 
CCc1cc2c(nc1CC)CCN(CC/C(C)=N/OC[C@@H](O)[C@@H]1O[C@@H]3OC(C)(C)O[C@@H]3[C@H]1O)C2

>  <Name>  (91) 
nan

>  <Pocket>  (91) 
nan

>  <ATP_Site>  (91) 
nan

>  <Peripheral>  (91) 
nan

>  <Num_H_Atoms_ProtBoundConf>  (91) 
nan

>  <Num_Resolved_Atoms>  (91) 
nan

>  <Num_Not_Resolved_Atoms>  (91) 
nan

$$$$
CHEMBL1572205
     RDKit          3D

  0  0  0  0  0  0  0  0  0  0999 V3000
M  V30 BEGIN CTAB
M  V30 COUNTS 24 24 0 0 0
M  V30 BEGIN ATOM
M  V30 1 C -0.120112 0.364597 3.635025 0
M  V30 2 C -0.319637 -1.118972 3.736068 0
M  V30 3 C -0.816439 -1.798543 2.527404 0
M  V30 4 C -0.042914 -1.777563 1.283976 0
M  V30 5 C 0.227925 -0.516470 0.619999 0
M  V30 6 O 0.015847 0.695080 0.689506 0
M  V30 7 N 1.041922 -0.747143 -0.553921 0
M  V30 8 C 1.495816 0.273456 -1.444345 0
M  V30 9 N 2.176772 0.265729 -2.464053 0
M  V30 10 C 2.475583 1.349457 -3.134610 0
M  V30 11 C 1.990267 2.603815 -2.664166 0
M  V30 12 Br 2.581098 4.162629 -3.870239 0
M  V30 13 S 1.057013 2.034073 -1.147548 0
M  V30 14 H 0.863835 0.654215 3.236234 0
M  V30 15 H -0.109134 0.830466 4.681647 0
M  V30 16 H -0.987756 0.872813 3.169240 0
M  V30 17 H 0.562637 -1.620575 4.209033 0
M  V30 18 H -1.117489 -1.251096 4.534420 0
M  V30 19 H -1.022736 -2.896613 2.753904 0
M  V30 20 H -1.875735 -1.421345 2.337665 0
M  V30 21 H 0.921033 -2.376551 1.370619 0
M  V30 22 H -0.623207 -2.405212 0.533188 0
M  V30 23 H 1.380303 -1.689645 -0.868204 0
M  V30 24 H 3.097247 1.105147 -4.016828 0
M  V30 END ATOM
M  V30 BEGIN BOND
M  V30 1 1 1 2
M  V30 2 1 2 3
M  V30 3 1 3 4
M  V30 4 1 4 5
M  V30 5 2 5 6
M  V30 6 1 5 7
M  V30 7 1 7 8
M  V30 8 2 8 9
M  V30 9 1 9 10
M  V30 10 2 10 11
M  V30 11 1 11 12
M  V30 12 1 11 13
M  V30 13 1 13 8
M  V30 14 1 1 14
M  V30 15 1 1 15
M  V30 16 1 1 16
M  V30 17 1 2 17
M  V30 18 1 2 18
M  V30 19 1 3 19
M  V30 20 1 3 20
M  V30 21 1 4 21
M  V30 22 1 4 22
M  V30 23 1 7 23
M  V30 24 1 10 24
M  V30 END BOND
M  V30 END CTAB
M  END
>  <Dataset>  (92) 
ChEMBL_Kinases

>  <Ligand_Instance>  (92) 
nan

>  <PDB_ID>  (92) 
nan

>  <Standardized_SMILES>  (92) 
CCCCC(=O)Nc1ncc(Br)s1

>  <Name>  (92) 
nan

>  <Pocket>  (92) 
nan

>  <ATP_Site>  (92) 
nan

>  <Peripheral>  (92) 
nan

>  <Num_H_Atoms_ProtBoundConf>  (92) 
nan

>  <Num_Resolved_Atoms>  (92) 
nan

>  <Num_Not_Resolved_Atoms>  (92) 
nan

$$$$
CHEMBL1572095
     RDKit          3D

  0  0  0  0  0  0  0  0  0  0999 V3000
M  V30 BEGIN CTAB
M  V30 COUNTS 52 55 0 0 0
M  V30 BEGIN ATOM
M  V30 1 C 2.259904 -4.223540 1.900520 0
M  V30 2 C 2.216503 -3.341064 0.924970 0
M  V30 3 C 0.921623 -2.603204 0.797144 0
M  V30 4 N -0.003740 -3.035540 1.797655 0
M  V30 5 C 0.098153 -2.345390 2.933822 0
M  V30 6 S 0.795880 -1.125513 3.924924 0
M  V30 7 C 2.082240 -0.081917 3.366621 0
M  V30 8 C 1.782752 0.937789 2.357096 0
M  V30 9 C 1.944520 1.115813 1.005905 0
M  V30 10 C 1.518443 2.202635 0.284910 0
M  V30 11 C 0.857780 3.248202 0.932890 0
M  V30 12 C 0.442087 4.353610 0.081412 0
M  V30 13 O 0.695815 4.328547 -1.145380 0
M  V30 14 N -0.241041 5.430769 0.662944 0
M  V30 15 C -0.717891 6.613017 -0.096034 0
M  V30 16 N -1.830067 6.638633 -0.594501 0
M  V30 17 C -2.305846 7.658603 -1.278648 0
M  V30 18 C -1.441945 8.786958 -1.426697 0
M  V30 19 S 0.072663 8.158566 -0.471010 0
M  V30 20 C 0.659384 3.141717 2.288852 0
M  V30 21 C 1.112789 2.017824 2.963260 0
M  V30 22 N -0.857760 -2.899053 3.747408 0
M  V30 23 N -1.455425 -3.861410 3.062272 0
M  V30 24 C -0.948605 -3.982741 1.827835 0
M  V30 25 C -1.193095 -4.829845 0.668524 0
M  V30 26 C -0.942376 -6.182787 0.712324 0
M  V30 27 C -1.175502 -7.001840 -0.396449 0
M  V30 28 C -1.673267 -6.379040 -1.542589 0
M  V30 29 C -1.951603 -7.184503 -2.771295 0
M  V30 30 C -1.942452 -5.032903 -1.643852 0
M  V30 31 Cl -2.561154 -4.305669 -3.094008 0
M  V30 32 C -1.688948 -4.280247 -0.510651 0
M  V30 33 H 1.422978 -4.384323 2.539961 0
M  V30 34 H 3.130314 -4.843415 2.125504 0
M  V30 35 H 3.053063 -3.156835 0.258163 0
M  V30 36 H 1.020774 -1.530728 0.701519 0
M  V30 37 H 0.501884 -2.946435 -0.207992 0
M  V30 38 H 2.532496 0.430748 4.278797 0
M  V30 39 H 2.984261 -0.651932 2.977590 0
M  V30 40 H 2.487883 0.248565 0.610459 0
M  V30 41 H 1.756575 2.123515 -0.768839 0
M  V30 42 H -0.498997 5.557625 1.642483 0
M  V30 43 H -3.324011 7.602283 -1.697106 0
M  V30 44 H -1.853195 9.677245 -2.021288 0
M  V30 45 H 0.152543 3.967947 2.723347 0
M  V30 46 H 0.862470 2.113318 4.035017 0
M  V30 47 H -0.560912 -6.611899 1.616851 0
M  V30 48 H -0.976077 -8.057894 -0.356441 0
M  V30 49 H -1.122602 -7.016583 -3.510483 0
M  V30 50 H -1.944025 -8.249577 -2.487710 0
M  V30 51 H -2.915266 -6.899967 -3.238965 0
M  V30 52 H -1.875633 -3.204676 -0.507354 0
M  V30 END ATOM
M  V30 BEGIN BOND
M  V30 1 2 1 2
M  V30 2 1 2 3
M  V30 3 1 3 4
M  V30 4 1 4 5
M  V30 5 1 5 6
M  V30 6 1 6 7
M  V30 7 1 7 8
M  V30 8 2 8 9
M  V30 9 1 9 10
M  V30 10 2 10 11
M  V30 11 1 11 12
M  V30 12 2 12 13
M  V30 13 1 12 14
M  V30 14 1 14 15
M  V30 15 2 15 16
M  V30 16 1 16 17
M  V30 17 2 17 18
M  V30 18 1 18 19
M  V30 19 1 11 20
M  V30 20 2 20 21
M  V30 21 2 5 22
M  V30 22 1 22 23
M  V30 23 2 23 24
M  V30 24 1 24 25
M  V30 25 2 25 26
M  V30 26 1 26 27
M  V30 27 2 27 28
M  V30 28 1 28 29
M  V30 29 1 28 30
M  V30 30 1 30 31
M  V30 31 2 30 32
M  V30 32 1 24 4
M  V30 33 1 32 25
M  V30 34 1 21 8
M  V30 35 1 19 15
M  V30 36 1 1 33
M  V30 37 1 1 34
M  V30 38 1 2 35
M  V30 39 1 3 36
M  V30 40 1 3 37
M  V30 41 1 7 38
M  V30 42 1 7 39
M  V30 43 1 9 40
M  V30 44 1 10 41
M  V30 45 1 14 42
M  V30 46 1 17 43
M  V30 47 1 18 44
M  V30 48 1 20 45
M  V30 49 1 21 46
M  V30 50 1 26 47
M  V30 51 1 27 48
M  V30 52 1 29 49
M  V30 53 1 29 50
M  V30 54 1 29 51
M  V30 55 1 32 52
M  V30 END BOND
M  V30 END CTAB
M  END
>  <Dataset>  (93) 
ChEMBL_Kinases

>  <Ligand_Instance>  (93) 
nan

>  <PDB_ID>  (93) 
nan

>  <Standardized_SMILES>  (93) 
C=CCn1c(SCc2ccc(C(=O)Nc3nccs3)cc2)nnc1-c1ccc(C)c(Cl)c1

>  <Name>  (93) 
nan

>  <Pocket>  (93) 
nan

>  <ATP_Site>  (93) 
nan

>  <Peripheral>  (93) 
nan

>  <Num_H_Atoms_ProtBoundConf>  (93) 
nan

>  <Num_Resolved_Atoms>  (93) 
nan

>  <Num_Not_Resolved_Atoms>  (93) 
nan

$$$$
CHEMBL1572017
     RDKit          3D

  0  0  0  0  0  0  0  0  0  0999 V3000
M  V30 BEGIN CTAB
M  V30 COUNTS 25 27 0 0 0
M  V30 BEGIN ATOM
M  V30 1 C -1.539845 -2.682130 2.112586 0
M  V30 2 C -0.111998 -2.316087 1.989115 0
M  V30 3 N 0.177614 -1.213290 1.433513 0
M  V30 4 N 1.439041 -0.709519 1.231647 0
M  V30 5 C 2.462962 -1.435397 1.653622 0
M  V30 6 N 3.625862 -0.779858 1.367398 0
M  V30 7 N 3.323127 0.359507 0.764393 0
M  V30 8 C 1.971458 0.414320 0.674640 0
M  V30 9 C 1.080428 1.425517 0.111221 0
M  V30 10 C 0.147521 0.991233 -0.832962 0
M  V30 11 C -0.745016 1.860566 -1.431405 0
M  V30 12 C -0.695737 3.194517 -1.070435 0
M  V30 13 C 0.242849 3.612904 -0.124903 0
M  V30 14 N 1.099037 2.729748 0.437488 0
M  V30 15 S 2.403039 -3.021785 2.473538 0
M  V30 16 C 0.639265 -3.438811 2.600223 0
M  V30 17 H -1.843231 -2.875125 3.178092 0
M  V30 18 H -1.750969 -3.637194 1.570461 0
M  V30 19 H -2.205736 -1.937351 1.631770 0
M  V30 20 H 0.116228 -0.056183 -1.109718 0
M  V30 21 H -1.439508 1.465322 -2.151358 0
M  V30 22 H -1.401495 3.867482 -1.547078 0
M  V30 23 H 0.260614 4.648369 0.136821 0
M  V30 24 H 0.407644 -3.473106 3.664359 0
M  V30 25 H 0.422293 -4.398286 2.066935 0
M  V30 END ATOM
M  V30 BEGIN BOND
M  V30 1 1 1 2
M  V30 2 2 2 3
M  V30 3 1 3 4
M  V30 4 1 4 5
M  V30 5 2 5 6
M  V30 6 1 6 7
M  V30 7 2 7 8
M  V30 8 1 8 9
M  V30 9 2 9 10
M  V30 10 1 10 11
M  V30 11 2 11 12
M  V30 12 1 12 13
M  V30 13 2 13 14
M  V30 14 1 5 15
M  V30 15 1 15 16
M  V30 16 1 16 2
M  V30 17 1 8 4
M  V30 18 1 14 9
M  V30 19 1 1 17
M  V30 20 1 1 18
M  V30 21 1 1 19
M  V30 22 1 10 20
M  V30 23 1 11 21
M  V30 24 1 12 22
M  V30 25 1 13 23
M  V30 26 1 16 24
M  V30 27 1 16 25
M  V30 END BOND
M  V30 END CTAB
M  END
>  <Dataset>  (94) 
ChEMBL_Kinases

>  <Ligand_Instance>  (94) 
nan

>  <PDB_ID>  (94) 
nan

>  <Standardized_SMILES>  (94) 
CC1=Nn2c(nnc2-c2ccccn2)SC1

>  <Name>  (94) 
nan

>  <Pocket>  (94) 
nan

>  <ATP_Site>  (94) 
nan

>  <Peripheral>  (94) 
nan

>  <Num_H_Atoms_ProtBoundConf>  (94) 
nan

>  <Num_Resolved_Atoms>  (94) 
nan

>  <Num_Not_Resolved_Atoms>  (94) 
nan

$$$$
CHEMBL1571874
     RDKit          3D

  0  0  0  0  0  0  0  0  0  0999 V3000
M  V30 BEGIN CTAB
M  V30 COUNTS 59 63 0 0 0
M  V30 BEGIN ATOM
M  V30 1 C 3.898395 1.109063 4.220757 0
M  V30 2 C 3.565643 -0.209046 3.565334 0
M  V30 3 C 3.031504 -1.134113 4.655716 0
M  V30 4 N 2.576177 -0.108376 2.546484 0
M  V30 5 C 2.926181 0.746656 1.460459 0
M  V30 6 C 1.971488 0.588800 0.311462 0
M  V30 7 C 0.614666 0.069186 0.707399 0
M  V30 8 C 0.294903 0.654536 2.077938 0
M  V30 9 C 1.269057 0.137169 3.091516 0
M  V30 10 N -0.356280 0.600076 -0.223600 0
M  V30 11 C -1.263313 -0.073723 -0.822075 0
M  V30 12 C -2.168652 0.613802 -1.734749 0
M  V30 13 C -1.998024 1.971078 -1.907742 0
M  V30 14 C -2.815491 2.675681 -2.750996 0
M  V30 15 C -3.832850 2.069148 -3.456360 0
M  V30 16 C -4.006153 0.706604 -3.284340 0
M  V30 17 C -3.175696 -0.018911 -2.425348 0
M  V30 18 O -5.076071 0.337680 -4.088574 0
M  V30 19 C -5.731320 1.474292 -4.618930 0
M  V30 20 O -4.792909 2.501697 -4.355114 0
M  V30 21 C -1.319713 -1.529335 -0.532201 0
M  V30 22 C 0.091699 -2.036925 -0.328208 0
M  V30 23 C -0.001748 -3.482234 0.004658 0
M  V30 24 C 0.031970 -4.359641 -1.066253 0
M  V30 25 C -0.048816 -5.737979 -0.864882 0
M  V30 26 Cl -0.007244 -6.860525 -2.213804 0
M  V30 27 C -0.163068 -6.201008 0.429668 0
M  V30 28 C -0.197980 -5.342904 1.504176 0
M  V30 29 C -0.116499 -3.975491 1.285574 0
M  V30 30 O -0.148503 -3.085401 2.341459 0
M  V30 31 N 0.619030 -1.352159 0.826800 0
M  V30 32 H 4.806626 1.015428 4.838574 0
M  V30 33 H 3.031877 1.340932 4.896756 0
M  V30 34 H 4.014987 1.943915 3.530050 0
M  V30 35 H 4.507218 -0.659110 3.233402 0
M  V30 36 H 2.734849 -2.122971 4.241963 0
M  V30 37 H 3.813853 -1.349744 5.407871 0
M  V30 38 H 2.120918 -0.665185 5.106847 0
M  V30 39 H 3.917069 0.404437 1.084112 0
M  V30 40 H 3.066738 1.819778 1.730859 0
M  V30 41 H 2.360676 -0.084487 -0.494387 0
M  V30 42 H 1.841050 1.599537 -0.151183 0
M  V30 43 H 0.341117 1.757534 1.982693 0
M  V30 44 H -0.757058 0.337340 2.322133 0
M  V30 45 H 1.291007 0.842516 3.958809 0
M  V30 46 H 0.865590 -0.810181 3.505472 0
M  V30 47 H -1.220593 2.506579 -1.385258 0
M  V30 48 H -2.663954 3.742386 -2.872437 0
M  V30 49 H -3.327308 -1.076094 -2.305907 0
M  V30 50 H -5.853869 1.339667 -5.729218 0
M  V30 51 H -6.718335 1.668321 -4.164450 0
M  V30 52 H -1.832287 -2.058968 -1.332892 0
M  V30 53 H -1.831182 -1.606960 0.470649 0
M  V30 54 H 0.659870 -1.854950 -1.243907 0
M  V30 55 H 0.122695 -3.991060 -2.094266 0
M  V30 56 H -0.228996 -7.274053 0.629678 0
M  V30 57 H -0.287689 -5.708535 2.520159 0
M  V30 58 H 0.593704 -3.151808 3.055373 0
M  V30 59 H 1.629910 -1.666899 0.911828 0
M  V30 END ATOM
M  V30 BEGIN BOND
M  V30 1 1 1 2
M  V30 2 1 2 3
M  V30 3 1 2 4
M  V30 4 1 4 5
M  V30 5 1 5 6
M  V30 6 1 6 7
M  V30 7 1 7 8
M  V30 8 1 8 9
M  V30 9 1 7 10
M  V30 10 2 10 11
M  V30 11 1 11 12
M  V30 12 2 12 13
M  V30 13 1 13 14
M  V30 14 2 14 15
M  V30 15 1 15 16
M  V30 16 2 16 17
M  V30 17 1 16 18
M  V30 18 1 18 19
M  V30 19 1 19 20
M  V30 20 1 11 21
M  V30 21 1 21 22
M  V30 22 1 22 23
M  V30 23 2 23 24
M  V30 24 1 24 25
M  V30 25 1 25 26
M  V30 26 2 25 27
M  V30 27 1 27 28
M  V30 28 2 28 29
M  V30 29 1 29 30
M  V30 30 1 22 31
M  V30 31 1 9 4
M  V30 32 1 17 12
M  V30 33 1 29 23
M  V30 34 1 31 7
M  V30 35 1 20 15
M  V30 36 1 1 32
M  V30 37 1 1 33
M  V30 38 1 1 34
M  V30 39 1 2 35
M  V30 40 1 3 36
M  V30 41 1 3 37
M  V30 42 1 3 38
M  V30 43 1 5 39
M  V30 44 1 5 40
M  V30 45 1 6 41
M  V30 46 1 6 42
M  V30 47 1 8 43
M  V30 48 1 8 44
M  V30 49 1 9 45
M  V30 50 1 9 46
M  V30 51 1 13 47
M  V30 52 1 14 48
M  V30 53 1 17 49
M  V30 54 1 19 50
M  V30 55 1 19 51
M  V30 56 1 21 52
M  V30 57 1 21 53
M  V30 58 1 22 54
M  V30 59 1 24 55
M  V30 60 1 27 56
M  V30 61 1 28 57
M  V30 62 1 30 58
M  V30 63 1 31 59
M  V30 END BOND
M  V30 END CTAB
M  END
>  <Dataset>  (95) 
ChEMBL_Kinases

>  <Ligand_Instance>  (95) 
nan

>  <PDB_ID>  (95) 
nan

>  <Standardized_SMILES>  (95) 
CC(C)N1CCC2(CC1)N=C(c1ccc3c(c1)OCO3)CC(c1cc(Cl)ccc1O)N2

>  <Name>  (95) 
nan

>  <Pocket>  (95) 
nan

>  <ATP_Site>  (95) 
nan

>  <Peripheral>  (95) 
nan

>  <Num_H_Atoms_ProtBoundConf>  (95) 
nan

>  <Num_Resolved_Atoms>  (95) 
nan

>  <Num_Not_Resolved_Atoms>  (95) 
nan

$$$$
CHEMBL1571373
     RDKit          3D

  0  0  0  0  0  0  0  0  0  0999 V3000
M  V30 BEGIN CTAB
M  V30 COUNTS 29 30 0 0 0
M  V30 BEGIN ATOM
M  V30 1 C -1.534765 -3.873623 0.668979 0
M  V30 2 O -0.569403 -4.249281 1.622914 0
M  V30 3 C 0.509488 -3.398428 1.912266 0
M  V30 4 C 1.450606 -3.742190 2.841838 0
M  V30 5 C 2.532829 -2.907433 3.144716 0
M  V30 6 C 2.657279 -1.683575 2.476807 0
M  V30 7 C 1.706810 -1.343277 1.541668 0
M  V30 8 C 1.767734 -0.086888 0.807110 0
M  V30 9 N 0.943552 0.346547 -0.141663 0
M  V30 10 C 1.255532 1.538882 -0.644224 0
M  V30 11 S 0.264376 2.239228 -1.939355 0
M  V30 12 C -1.122642 3.231482 -1.340883 0
M  V30 13 C -2.152932 2.449228 -0.634226 0
M  V30 14 O -2.844416 1.833943 -1.496138 0
M  V30 15 O -2.944830 1.877396 0.332260 0
M  V30 16 N 2.380125 1.912861 0.035912 0
M  V30 17 N 2.668320 0.933431 0.893191 0
M  V30 18 C 0.639115 -2.198637 1.262886 0
M  V30 19 H -1.204975 -4.017588 -0.376494 0
M  V30 20 H -2.451424 -4.518914 0.795742 0
M  V30 21 H -1.863369 -2.799680 0.780957 0
M  V30 22 H 1.418240 -4.664995 3.390579 0
M  V30 23 H 3.278675 -3.207665 3.898792 0
M  V30 24 H 3.483399 -1.007562 2.684668 0
M  V30 25 H -1.569913 3.847662 -2.151498 0
M  V30 26 H -0.697931 4.008127 -0.633771 0
M  V30 27 H -3.682861 2.404078 0.825794 0
M  V30 28 H 3.483441 0.905835 1.571243 0
M  V30 29 H -0.077161 -1.881365 0.518626 0
M  V30 END ATOM
M  V30 BEGIN BOND
M  V30 1 1 1 2
M  V30 2 1 2 3
M  V30 3 2 3 4
M  V30 4 1 4 5
M  V30 5 2 5 6
M  V30 6 1 6 7
M  V30 7 1 7 8
M  V30 8 2 8 9
M  V30 9 1 9 10
M  V30 10 1 10 11
M  V30 11 1 11 12
M  V30 12 1 12 13
M  V30 13 2 13 14
M  V30 14 1 13 15
M  V30 15 2 10 16
M  V30 16 1 16 17
M  V30 17 2 7 18
M  V30 18 1 18 3
M  V30 19 1 17 8
M  V30 20 1 1 19
M  V30 21 1 1 20
M  V30 22 1 1 21
M  V30 23 1 4 22
M  V30 24 1 5 23
M  V30 25 1 6 24
M  V30 26 1 12 25
M  V30 27 1 12 26
M  V30 28 1 15 27
M  V30 29 1 17 28
M  V30 30 1 18 29
M  V30 END BOND
M  V30 END CTAB
M  END
>  <Dataset>  (96) 
ChEMBL_Kinases

>  <Ligand_Instance>  (96) 
nan

>  <PDB_ID>  (96) 
nan

>  <Standardized_SMILES>  (96) 
COc1cccc(-c2nc(SCC(=O)O)n[nH]2)c1

>  <Name>  (96) 
nan

>  <Pocket>  (96) 
nan

>  <ATP_Site>  (96) 
nan

>  <Peripheral>  (96) 
nan

>  <Num_H_Atoms_ProtBoundConf>  (96) 
nan

>  <Num_Resolved_Atoms>  (96) 
nan

>  <Num_Not_Resolved_Atoms>  (96) 
nan

$$$$
CHEMBL1571358
     RDKit          3D

  0  0  0  0  0  0  0  0  0  0999 V3000
M  V30 BEGIN CTAB
M  V30 COUNTS 36 36 0 0 0
M  V30 BEGIN ATOM
M  V30 1 C -3.228576 -0.197414 1.611389 0
M  V30 2 N -1.927334 0.156264 1.035604 0
M  V30 3 C -1.089135 -0.905421 0.486151 0
M  V30 4 O -1.948728 -1.826064 0.771487 0
M  V30 5 C 0.171224 -0.390426 -0.047618 0
M  V30 6 C 1.436547 -0.998175 0.394227 0
M  V30 7 C 1.615166 -2.428679 0.088616 0
M  V30 8 C 0.619559 -3.373720 0.694548 0
M  V30 9 C 2.993498 -2.819270 0.662831 0
M  V30 10 C 0.014703 -0.467138 -1.563618 0
M  V30 11 C -0.150300 0.694696 -2.188456 0
M  V30 12 C -0.139346 1.826210 -1.200562 0
M  V30 13 N 0.256395 1.094564 0.012026 0
M  V30 14 C 0.676895 1.909053 1.103126 0
M  V30 15 C 1.134558 1.482997 2.453894 0
M  V30 16 O 0.600289 3.130311 0.734032 0
M  V30 17 H -3.764786 0.716099 1.914193 0
M  V30 18 H -3.049706 -0.900504 2.427195 0
M  V30 19 H -3.838785 -0.720689 0.838030 0
M  V30 20 H -1.677678 1.192097 1.059377 0
M  V30 21 H 2.270580 -0.363936 -0.004701 0
M  V30 22 H 1.467762 -0.897012 1.515942 0
M  V30 23 H 1.680321 -2.626418 -1.013973 0
M  V30 24 H 1.174906 -4.336154 0.929698 0
M  V30 25 H 0.264342 -3.026952 1.681534 0
M  V30 26 H -0.182429 -3.662812 -0.011158 0
M  V30 27 H 3.304390 -3.793196 0.286945 0
M  V30 28 H 2.827725 -2.888556 1.763176 0
M  V30 29 H 3.685099 -1.994049 0.495383 0
M  V30 30 H 0.069018 -1.499165 -1.866668 0
M  V30 31 H -0.259550 0.640795 -3.246647 0
M  V30 32 H -1.148652 2.228670 -1.038660 0
M  V30 33 H 0.624180 2.582737 -1.466430 0
M  V30 34 H 0.451237 0.752332 2.931638 0
M  V30 35 H 1.077796 2.404466 3.079480 0
M  V30 36 H 2.202482 1.177587 2.472953 0
M  V30 END ATOM
M  V30 BEGIN BOND
M  V30 1 1 1 2
M  V30 2 1 2 3
M  V30 3 2 3 4
M  V30 4 1 3 5
M  V30 5 1 5 6
M  V30 6 1 6 7
M  V30 7 1 7 8
M  V30 8 1 7 9
M  V30 9 1 5 10
M  V30 10 2 10 11
M  V30 11 1 11 12
M  V30 12 1 12 13
M  V30 13 1 13 14
M  V30 14 1 14 15
M  V30 15 2 14 16
M  V30 16 1 13 5
M  V30 17 1 1 17
M  V30 18 1 1 18
M  V30 19 1 1 19
M  V30 20 1 2 20
M  V30 21 1 6 21
M  V30 22 1 6 22
M  V30 23 1 7 23
M  V30 24 1 8 24
M  V30 25 1 8 25
M  V30 26 1 8 26
M  V30 27 1 9 27
M  V30 28 1 9 28
M  V30 29 1 9 29
M  V30 30 1 10 30
M  V30 31 1 11 31
M  V30 32 1 12 32
M  V30 33 1 12 33
M  V30 34 1 15 34
M  V30 35 1 15 35
M  V30 36 1 15 36
M  V30 END BOND
M  V30 END CTAB
M  END
>  <Dataset>  (97) 
ChEMBL_Kinases

>  <Ligand_Instance>  (97) 
nan

>  <PDB_ID>  (97) 
nan

>  <Standardized_SMILES>  (97) 
CNC(=O)C1(CC(C)C)C=CCN1C(C)=O

>  <Name>  (97) 
nan

>  <Pocket>  (97) 
nan

>  <ATP_Site>  (97) 
nan

>  <Peripheral>  (97) 
nan

>  <Num_H_Atoms_ProtBoundConf>  (97) 
nan

>  <Num_Resolved_Atoms>  (97) 
nan

>  <Num_Not_Resolved_Atoms>  (97) 
nan

$$$$
CHEMBL1576920
     RDKit          3D

  0  0  0  0  0  0  0  0  0  0999 V3000
M  V30 BEGIN CTAB
M  V30 COUNTS 49 52 0 0 0
M  V30 BEGIN ATOM
M  V30 1 C 0.617574 1.536182 -6.322298 0
M  V30 2 C 1.763762 0.598389 -6.013667 0
M  V30 3 N 2.095249 0.657810 -4.573249 0
M  V30 4 C 1.423925 -0.246901 -3.652441 0
M  V30 5 O 0.578320 -1.118508 -3.952186 0
M  V30 6 C 1.802368 -0.097210 -2.280315 0
M  V30 7 C 1.274722 -0.162800 -1.114861 0
M  V30 8 C 1.781810 0.003356 0.242570 0
M  V30 9 O 3.007806 0.223731 0.415608 0
M  V30 10 N 0.697070 -0.129526 1.153723 0
M  V30 11 C -0.426817 -0.366831 0.350593 0
M  V30 12 C -1.661168 -0.524228 0.942567 0
M  V30 13 C -2.731055 -0.730862 0.097523 0
M  V30 14 C -2.511224 -0.767616 -1.286207 0
M  V30 15 O -3.679608 -0.981194 -2.001873 0
M  V30 16 C -4.114735 -2.258699 -2.320106 0
M  V30 17 C -4.622891 -3.617471 -2.686006 0
M  V30 18 O -3.020314 -2.305792 -1.660417 0
M  V30 19 C -1.229447 -0.596495 -1.747197 0
M  V30 20 C -0.137805 -0.394380 -0.994687 0
M  V30 21 C -1.759416 -0.452422 2.392766 0
M  V30 22 C -3.098229 -0.626058 3.011608 0
M  V30 23 C -0.684035 -0.237525 3.148633 0
M  V30 24 C 0.687543 -0.054272 2.591618 0
M  V30 25 C 1.550437 -1.169225 3.155774 0
M  V30 26 C 1.263449 1.275144 3.012338 0
M  V30 27 S 3.530052 0.433974 -2.525300 0
M  V30 28 C 3.035151 1.540946 -3.906894 0
M  V30 29 S 3.306369 3.044738 -4.533582 0
M  V30 30 H 0.975754 2.508845 -6.716525 0
M  V30 31 H -0.025548 1.092416 -7.127306 0
M  V30 32 H -0.038354 1.727799 -5.454764 0
M  V30 33 H 2.617634 0.849621 -6.633350 0
M  V30 34 H 1.447428 -0.422791 -6.290608 0
M  V30 35 H -3.693669 -0.854449 0.562164 0
M  V30 36 H -5.523572 -3.537931 -3.331079 0
M  V30 37 H -3.780489 -4.166267 -3.149932 0
M  V30 38 H -4.827698 -4.137086 -1.713708 0
M  V30 39 H -1.289856 -0.621580 -2.801079 0
M  V30 40 H -3.102923 -0.262605 4.052538 0
M  V30 41 H -3.350610 -1.697535 2.922140 0
M  V30 42 H -3.890559 -0.074670 2.436638 0
M  V30 43 H -0.752518 -0.183609 4.232661 0
M  V30 44 H 2.362190 -1.362008 2.421762 0
M  V30 45 H 2.063454 -0.816603 4.080728 0
M  V30 46 H 0.908380 -2.032891 3.328909 0
M  V30 47 H 0.858363 1.605886 3.984004 0
M  V30 48 H 1.062103 2.006801 2.196675 0
M  V30 49 H 2.389132 1.186130 3.036127 0
M  V30 END ATOM
M  V30 BEGIN BOND
M  V30 1 1 1 2
M  V30 2 1 2 3
M  V30 3 1 3 4
M  V30 4 2 4 5
M  V30 5 1 4 6
M  V30 6 2 6 7
M  V30 7 1 7 8
M  V30 8 2 8 9
M  V30 9 1 8 10
M  V30 10 1 10 11
M  V30 11 2 11 12
M  V30 12 1 12 13
M  V30 13 2 13 14
M  V30 14 1 14 15
M  V30 15 1 15 16
M  V30 16 1 16 17
M  V30 17 2 16 18
M  V30 18 1 14 19
M  V30 19 2 19 20
M  V30 20 1 12 21
M  V30 21 1 21 22
M  V30 22 2 21 23
M  V30 23 1 23 24
M  V30 24 1 24 25
M  V30 25 1 24 26
M  V30 26 1 6 27
M  V30 27 1 27 28
M  V30 28 2 28 29
M  V30 29 1 28 3
M  V30 30 1 20 7
M  V30 31 1 24 10
M  V30 32 1 20 11
M  V30 33 1 1 30
M  V30 34 1 1 31
M  V30 35 1 1 32
M  V30 36 1 2 33
M  V30 37 1 2 34
M  V30 38 1 13 35
M  V30 39 1 17 36
M  V30 40 1 17 37
M  V30 41 1 17 38
M  V30 42 1 19 39
M  V30 43 1 22 40
M  V30 44 1 22 41
M  V30 45 1 22 42
M  V30 46 1 23 43
M  V30 47 1 25 44
M  V30 48 1 25 45
M  V30 49 1 25 46
M  V30 50 1 26 47
M  V30 51 1 26 48
M  V30 52 1 26 49
M  V30 END BOND
M  V30 END CTAB
M  END
>  <Dataset>  (98) 
ChEMBL_Kinases

>  <Ligand_Instance>  (98) 
nan

>  <PDB_ID>  (98) 
nan

>  <Standardized_SMILES>  (98) 
CCN1C(=O)/C(=C2/C(=O)N3c4c(cc(OC(C)=O)cc42)C(C)=CC3(C)C)SC1=S

>  <Name>  (98) 
nan

>  <Pocket>  (98) 
nan

>  <ATP_Site>  (98) 
nan

>  <Peripheral>  (98) 
nan

>  <Num_H_Atoms_ProtBoundConf>  (98) 
nan

>  <Num_Resolved_Atoms>  (98) 
nan

>  <Num_Not_Resolved_Atoms>  (98) 
nan

$$$$
CHEMBL1569585
     RDKit          3D

  0  0  0  0  0  0  0  0  0  0999 V3000
M  V30 BEGIN CTAB
M  V30 COUNTS 50 53 0 0 0
M  V30 BEGIN ATOM
M  V30 1 C -3.315316 -0.866253 1.829149 0
M  V30 2 C -2.460840 0.040605 1.486056 0
M  V30 3 C -2.584718 1.254798 2.309910 0
M  V30 4 O -3.316307 1.669801 3.248496 0
M  V30 5 C -1.546612 2.174321 1.856816 0
M  V30 6 C -0.899789 1.528037 0.859410 0
M  V30 7 C 0.157790 1.543370 -0.138037 0
M  V30 8 N 0.771405 0.216557 -0.040972 0
M  V30 9 C 2.066689 -0.077613 -0.547601 0
M  V30 10 O 2.820028 -1.078996 -0.602286 0
M  V30 11 C 2.866123 0.940696 -1.207657 0
M  V30 12 C 2.444634 1.318096 -2.456116 0
M  V30 13 C 3.144292 2.284223 -3.163266 0
M  V30 14 C 4.274804 2.898525 -2.652494 0
M  V30 15 C 4.692726 2.505493 -1.380504 0
M  V30 16 C 3.990803 1.543312 -0.684181 0
M  V30 17 C -0.187111 -0.691656 0.643611 0 CFG=1
M  V30 18 C -0.123815 -1.967618 -0.102554 0
M  V30 19 C -0.968534 -3.069343 0.352944 0
M  V30 20 C -2.233707 -3.405285 -0.078436 0
M  V30 21 C -2.934586 -4.475794 0.446195 0
M  V30 22 C -2.407566 -5.283958 1.443349 0
M  V30 23 F -3.125507 -6.319033 1.934336 0
M  V30 24 C -1.152263 -4.963765 1.881068 0
M  V30 25 C -0.472234 -3.894066 1.346503 0
M  V30 26 C 0.276301 -0.809570 2.047532 0
M  V30 27 O 1.253305 -0.037848 1.781862 0
M  V30 28 O -0.153173 -1.471397 3.186028 0
M  V30 29 C 0.539940 -1.371679 4.420926 0
M  V30 30 C -1.409568 0.142178 0.495544 0 CFG=1
M  V30 31 H -4.063750 -0.829465 2.607058 0
M  V30 32 H -3.920475 -1.733211 1.946385 0
M  V30 33 H -1.214989 3.163608 2.116059 0
M  V30 34 H 0.950984 2.299418 0.041772 0
M  V30 35 H -0.264511 1.763210 -1.122376 0
M  V30 36 H 1.571326 0.891957 -2.941291 0
M  V30 37 H 2.798925 2.573427 -4.154985 0
M  V30 38 H 4.800162 3.651459 -3.231291 0
M  V30 39 H 5.580512 2.969298 -0.940910 0
M  V30 40 H 4.309283 1.246387 0.279263 0
M  V30 41 H 0.947001 -2.329127 -0.030740 0
M  V30 42 H -0.239175 -1.821775 -1.220926 0
M  V30 43 H -2.649692 -2.778077 -0.856861 0
M  V30 44 H -3.926693 -4.656679 0.034288 0
M  V30 45 H -0.723079 -5.580594 2.657872 0
M  V30 46 H 0.526626 -3.749719 1.792784 0
M  V30 47 H -0.203056 -1.108730 5.201177 0
M  V30 48 H 1.384111 -0.652751 4.348261 0
M  V30 49 H 0.956925 -2.365545 4.674268 0
M  V30 50 H -1.726108 0.129333 -0.546174 0
M  V30 END ATOM
M  V30 BEGIN BOND
M  V30 1 2 1 2
M  V30 2 1 2 3
M  V30 3 2 3 4
M  V30 4 1 3 5
M  V30 5 2 5 6
M  V30 6 1 6 7
M  V30 7 1 7 8
M  V30 8 1 8 9
M  V30 9 2 9 10
M  V30 10 1 9 11
M  V30 11 2 11 12
M  V30 12 1 12 13
M  V30 13 2 13 14
M  V30 14 1 14 15
M  V30 15 2 15 16
M  V30 16 1 8 17
M  V30 17 1 17 18 CFG=3
M  V30 18 1 18 19
M  V30 19 2 19 20
M  V30 20 1 20 21
M  V30 21 2 21 22
M  V30 22 1 22 23
M  V30 23 1 22 24
M  V30 24 2 24 25
M  V30 25 1 17 26
M  V30 26 2 26 27
M  V30 27 1 26 28
M  V30 28 1 28 29
M  V30 29 1 17 30
M  V30 30 1 30 2
M  V30 31 1 30 6
M  V30 32 1 16 11
M  V30 33 1 25 19
M  V30 34 1 1 31
M  V30 35 1 1 32
M  V30 36 1 5 33
M  V30 37 1 7 34
M  V30 38 1 7 35
M  V30 39 1 12 36
M  V30 40 1 13 37
M  V30 41 1 14 38
M  V30 42 1 15 39
M  V30 43 1 16 40
M  V30 44 1 18 41
M  V30 45 1 18 42
M  V30 46 1 20 43
M  V30 47 1 21 44
M  V30 48 1 24 45
M  V30 49 1 25 46
M  V30 50 1 29 47
M  V30 51 1 29 48
M  V30 52 1 29 49
M  V30 53 1 30 50 CFG=3
M  V30 END BOND
M  V30 END CTAB
M  END
>  <Dataset>  (99) 
ChEMBL_Kinases

>  <Ligand_Instance>  (99) 
nan

>  <PDB_ID>  (99) 
nan

>  <Standardized_SMILES>  (99) 
C=C1C(=O)C=C2CN(C(=O)c3ccccc3)[C@@](Cc3ccc(F)cc3)(C(=O)OC)[C@@H]12

>  <Name>  (99) 
nan

>  <Pocket>  (99) 
nan

>  <ATP_Site>  (99) 
nan

>  <Peripheral>  (99) 
nan

>  <Num_H_Atoms_ProtBoundConf>  (99) 
nan

>  <Num_Resolved_Atoms>  (99) 
nan

>  <Num_Not_Resolved_Atoms>  (99) 
nan

$$$$
CHEMBL1569781
     RDKit          3D

  0  0  0  0  0  0  0  0  0  0999 V3000
M  V30 BEGIN CTAB
M  V30 COUNTS 33 35 0 0 0
M  V30 BEGIN ATOM
M  V30 1 O 0.839859 -3.223958 1.501622 0
M  V30 2 C 0.895817 -1.977098 1.349481 0
M  V30 3 C 1.905672 -1.174732 2.036209 0
M  V30 4 C 2.773760 -1.751472 2.826862 0
M  V30 5 C 3.793699 -0.935609 3.519579 0
M  V30 6 C 4.779576 -1.413051 4.389441 0
M  V30 7 C 5.475819 -0.284027 4.771812 0
M  V30 8 C 4.920163 0.815135 4.150234 0
M  V30 9 O 3.928683 0.359707 3.423430 0
M  V30 10 N -0.062308 -1.385941 0.484006 0
M  V30 11 C -1.086952 -2.113257 -0.226507 0
M  V30 12 C -1.893471 -1.155591 -1.027802 0
M  V30 13 C -1.468262 -0.895633 -2.329955 0
M  V30 14 C -2.071611 -0.046976 -3.227556 0
M  V30 15 C -3.202731 0.603458 -2.789505 0
M  V30 16 C -3.663340 0.380726 -1.511681 0
M  V30 17 C -3.043982 -0.474842 -0.625454 0
M  V30 18 O -4.817175 1.157349 -1.319913 0
M  V30 19 C -5.305197 1.496204 -2.595306 0
M  V30 20 O -4.091747 1.516345 -3.350910 0
M  V30 21 H 1.911596 -0.106085 1.871943 0
M  V30 22 H 2.775251 -2.823133 2.997583 0
M  V30 23 H 4.949425 -2.445241 4.689576 0
M  V30 24 H 6.333883 -0.249562 5.457714 0
M  V30 25 H 5.207986 1.874913 4.214490 0
M  V30 26 H 0.021061 -0.331367 0.384366 0
M  V30 27 H -0.708140 -2.880389 -0.920248 0
M  V30 28 H -1.788003 -2.635646 0.454545 0
M  V30 29 H -0.567948 -1.398577 -2.711920 0
M  V30 30 H -1.695161 0.107092 -4.208845 0
M  V30 31 H -3.354581 -0.689767 0.382175 0
M  V30 32 H -5.836463 2.453468 -2.620022 0
M  V30 33 H -5.914203 0.645484 -3.004337 0
M  V30 END ATOM
M  V30 BEGIN BOND
M  V30 1 2 1 2
M  V30 2 1 2 3
M  V30 3 2 3 4
M  V30 4 1 4 5
M  V30 5 2 5 6
M  V30 6 1 6 7
M  V30 7 2 7 8
M  V30 8 1 8 9
M  V30 9 1 2 10
M  V30 10 1 10 11
M  V30 11 1 11 12
M  V30 12 2 12 13
M  V30 13 1 13 14
M  V30 14 2 14 15
M  V30 15 1 15 16
M  V30 16 2 16 17
M  V30 17 1 16 18
M  V30 18 1 18 19
M  V30 19 1 19 20
M  V30 20 1 9 5
M  V30 21 1 17 12
M  V30 22 1 20 15
M  V30 23 1 3 21
M  V30 24 1 4 22
M  V30 25 1 6 23
M  V30 26 1 7 24
M  V30 27 1 8 25
M  V30 28 1 10 26
M  V30 29 1 11 27
M  V30 30 1 11 28
M  V30 31 1 13 29
M  V30 32 1 14 30
M  V30 33 1 17 31
M  V30 34 1 19 32
M  V30 35 1 19 33
M  V30 END BOND
M  V30 END CTAB
M  END
>  <Dataset>  (100) 
ChEMBL_Kinases

>  <Ligand_Instance>  (100) 
nan

>  <PDB_ID>  (100) 
nan

>  <Standardized_SMILES>  (100) 
O=C(/C=C/c1ccco1)NCc1ccc2c(c1)OCO2

>  <Name>  (100) 
nan

>  <Pocket>  (100) 
nan

>  <ATP_Site>  (100) 
nan

>  <Peripheral>  (100) 
nan

>  <Num_H_Atoms_ProtBoundConf>  (100) 
nan

>  <Num_Resolved_Atoms>  (100) 
nan

>  <Num_Not_Resolved_Atoms>  (100) 
nan

$$$$
CHEMBL156987
     RDKit          3D

  0  0  0  0  0  0  0  0  0  0999 V3000
M  V30 BEGIN CTAB
M  V30 COUNTS 35 37 0 0 0
M  V30 BEGIN ATOM
M  V30 1 O 0.503243 0.457669 4.867693 0
M  V30 2 C 1.187172 -0.121094 3.982506 0
M  V30 3 N 2.206274 -1.109549 3.899926 0
M  V30 4 C 2.509415 -1.266011 2.516972 0
M  V30 5 O 3.400582 -2.106798 2.210162 0
M  V30 6 C 1.658201 -0.357132 1.762954 0
M  V30 7 C 1.784898 -0.324313 0.291152 0
M  V30 8 C 1.991823 -1.434320 -0.503762 0
M  V30 9 C 2.095162 -1.284482 -1.874805 0
M  V30 10 C 1.992468 -0.022781 -2.463202 0
M  V30 11 C 1.785090 1.104939 -1.689004 0
M  V30 12 Cl 1.654063 2.700225 -2.395670 0
M  V30 13 C 1.684795 0.928623 -0.316232 0
M  V30 14 C 0.877395 0.318904 2.626999 0
M  V30 15 N -0.020809 1.255970 1.993911 0
M  V30 16 C -1.067056 0.693440 1.194962 0
M  V30 17 C -1.992160 1.473543 0.497618 0
M  V30 18 C -2.977319 0.900185 -0.257116 0
M  V30 19 C -3.119080 -0.457977 -0.376620 0
M  V30 20 Cl -4.373665 -1.211913 -1.338598 0
M  V30 21 C -2.216970 -1.271692 0.302808 0
M  V30 22 C -2.338526 -2.720548 0.194405 0
M  V30 23 O -3.248043 -3.216373 -0.516382 0
M  V30 24 O -1.431054 -3.530764 0.891506 0
M  V30 25 C -1.233089 -0.673095 1.057165 0
M  V30 26 H 2.509102 -1.501419 4.838750 0
M  V30 27 H 2.065216 -2.388331 -0.011982 0
M  V30 28 H 2.257616 -2.142906 -2.512479 0
M  V30 29 H 2.066044 0.153608 -3.532134 0
M  V30 30 H 1.524916 1.820432 0.263853 0
M  V30 31 H -0.009911 2.309789 2.042105 0
M  V30 32 H -1.894367 2.540735 0.581702 0
M  V30 33 H -3.709051 1.495037 -0.808652 0
M  V30 34 H -1.645217 -4.522026 1.057072 0
M  V30 35 H -0.582995 -1.361031 1.551707 0
M  V30 END ATOM
M  V30 BEGIN BOND
M  V30 1 2 1 2
M  V30 2 1 2 3
M  V30 3 1 3 4
M  V30 4 2 4 5
M  V30 5 1 4 6
M  V30 6 1 6 7
M  V30 7 2 7 8
M  V30 8 1 8 9
M  V30 9 2 9 10
M  V30 10 1 10 11
M  V30 11 1 11 12
M  V30 12 2 11 13
M  V30 13 2 6 14
M  V30 14 1 14 15
M  V30 15 1 15 16
M  V30 16 2 16 17
M  V30 17 1 17 18
M  V30 18 2 18 19
M  V30 19 1 19 20
M  V30 20 1 19 21
M  V30 21 1 21 22
M  V30 22 2 22 23
M  V30 23 1 22 24
M  V30 24 2 21 25
M  V30 25 1 14 2
M  V30 26 1 25 16
M  V30 27 1 13 7
M  V30 28 1 3 26
M  V30 29 1 8 27
M  V30 30 1 9 28
M  V30 31 1 10 29
M  V30 32 1 13 30
M  V30 33 1 15 31
M  V30 34 1 17 32
M  V30 35 1 18 33
M  V30 36 1 24 34
M  V30 37 1 25 35
M  V30 END BOND
M  V30 END CTAB
M  END
>  <Dataset>  (101) 
ChEMBL_Kinases

>  <Ligand_Instance>  (101) 
nan

>  <PDB_ID>  (101) 
nan

>  <Standardized_SMILES>  (101) 
O=C1NC(=O)C(c2cccc(Cl)c2)=C1Nc1ccc(Cl)c(C(=O)O)c1

>  <Name>  (101) 
nan

>  <Pocket>  (101) 
nan

>  <ATP_Site>  (101) 
nan

>  <Peripheral>  (101) 
nan

>  <Num_H_Atoms_ProtBoundConf>  (101) 
nan

>  <Num_Resolved_Atoms>  (101) 
nan

>  <Num_Not_Resolved_Atoms>  (101) 
nan

$$$$
CHEMBL1569975
     RDKit          3D

  0  0  0  0  0  0  0  0  0  0999 V3000
M  V30 BEGIN CTAB
M  V30 COUNTS 43 45 0 0 0
M  V30 BEGIN ATOM
M  V30 1 C 2.819181 -7.324660 1.943583 0
M  V30 2 O 2.566970 -5.982455 1.518474 0
M  V30 3 C 3.355680 -5.313162 0.623639 0
M  V30 4 O 4.362864 -5.887522 0.134047 0
M  V30 5 C 3.019826 -3.943771 0.248582 0
M  V30 6 C 1.917219 -3.310333 0.782444 0
M  V30 7 C 1.556021 -2.038102 0.470717 0
M  V30 8 C 2.302064 -1.300574 -0.423457 0
M  V30 9 O 2.196176 -0.017518 -0.930790 0
M  V30 10 C 1.181106 0.836986 -0.563533 0
M  V30 11 C 1.327028 2.042575 -1.223411 0
M  V30 12 C 0.436646 3.107997 -1.045631 0
M  V30 13 C 0.541904 4.423978 -1.725620 0
M  V30 14 N -0.601453 2.917071 -0.183430 0
M  V30 15 C -0.747495 1.736222 0.465235 0
M  V30 16 N -1.801605 1.448044 1.383828 0
M  V30 17 N -2.776040 0.574999 1.187354 0
M  V30 18 C -3.606697 0.537241 2.237545 0
M  V30 19 C -4.832746 -0.268021 2.495763 0
M  V30 20 C -3.115673 1.452337 3.155542 0
M  V30 21 C -1.979386 2.021301 2.610592 0
M  V30 22 C -1.082281 3.060371 3.197054 0
M  V30 23 N 0.143086 0.751457 0.250442 0
M  V30 24 C 3.429302 -1.909148 -0.987074 0
M  V30 25 C 3.778710 -3.222701 -0.647659 0
M  V30 26 H 1.823210 -7.814380 1.955352 0
M  V30 27 H 3.426636 -7.871223 1.213483 0
M  V30 28 H 3.203308 -7.368888 2.974949 0
M  V30 29 H 1.273553 -3.809962 1.491445 0
M  V30 30 H 0.723067 -1.462923 0.829848 0
M  V30 31 H 2.109483 2.334904 -1.941122 0
M  V30 32 H -0.351942 4.547580 -2.380460 0
M  V30 33 H 1.424355 4.464625 -2.369349 0
M  V30 34 H 0.633717 5.239281 -0.990819 0
M  V30 35 H -5.674472 0.349706 2.841919 0
M  V30 36 H -5.073172 -0.750813 1.521891 0
M  V30 37 H -4.625384 -1.113721 3.201191 0
M  V30 38 H -3.485147 1.742670 4.152021 0
M  V30 39 H -1.065420 2.967327 4.315715 0
M  V30 40 H -1.500171 4.064014 2.993738 0
M  V30 41 H -0.038332 2.941551 2.868663 0
M  V30 42 H 4.144401 -1.490050 -1.712617 0
M  V30 43 H 4.636870 -3.741689 -1.051294 0
M  V30 END ATOM
M  V30 BEGIN BOND
M  V30 1 1 1 2
M  V30 2 1 2 3
M  V30 3 2 3 4
M  V30 4 1 3 5
M  V30 5 2 5 6
M  V30 6 1 6 7
M  V30 7 2 7 8
M  V30 8 1 8 9
M  V30 9 1 9 10
M  V30 10 2 10 11
M  V30 11 1 11 12
M  V30 12 1 12 13
M  V30 13 2 12 14
M  V30 14 1 14 15
M  V30 15 1 15 16
M  V30 16 1 16 17
M  V30 17 2 17 18
M  V30 18 1 18 19
M  V30 19 1 18 20
M  V30 20 2 20 21
M  V30 21 1 21 22
M  V30 22 2 15 23
M  V30 23 1 8 24
M  V30 24 2 24 25
M  V30 25 1 25 5
M  V30 26 1 23 10
M  V30 27 1 21 16
M  V30 28 1 1 26
M  V30 29 1 1 27
M  V30 30 1 1 28
M  V30 31 1 6 29
M  V30 32 1 7 30
M  V30 33 1 11 31
M  V30 34 1 13 32
M  V30 35 1 13 33
M  V30 36 1 13 34
M  V30 37 1 19 35
M  V30 38 1 19 36
M  V30 39 1 19 37
M  V30 40 1 20 38
M  V30 41 1 22 39
M  V30 42 1 22 40
M  V30 43 1 22 41
M  V30 44 1 24 42
M  V30 45 1 25 43
M  V30 END BOND
M  V30 END CTAB
M  END
>  <Dataset>  (102) 
ChEMBL_Kinases

>  <Ligand_Instance>  (102) 
nan

>  <PDB_ID>  (102) 
nan

>  <Standardized_SMILES>  (102) 
COC(=O)c1ccc(Oc2cc(C)nc(-n3nc(C)cc3C)n2)cc1

>  <Name>  (102) 
nan

>  <Pocket>  (102) 
nan

>  <ATP_Site>  (102) 
nan

>  <Peripheral>  (102) 
nan

>  <Num_H_Atoms_ProtBoundConf>  (102) 
nan

>  <Num_Resolved_Atoms>  (102) 
nan

>  <Num_Not_Resolved_Atoms>  (102) 
nan

$$$$
CHEMBL1570016
     RDKit          3D

  0  0  0  0  0  0  0  0  0  0999 V3000
M  V30 BEGIN CTAB
M  V30 COUNTS 42 45 0 0 0
M  V30 BEGIN ATOM
M  V30 1 C 0.694683 -3.252524 2.548976 0
M  V30 2 C 0.751271 -2.196634 1.463790 0
M  V30 3 N -0.434554 -2.195852 0.648905 0
M  V30 4 C -1.424665 -1.388854 1.056584 0
M  V30 5 S -1.489510 -0.257156 2.425269 0
M  V30 6 C -0.978453 1.419147 1.986628 0
M  V30 7 C 0.448019 1.551314 1.645625 0
M  V30 8 N 1.025880 1.394845 0.431209 0
M  V30 9 C 2.350541 1.553411 0.255681 0
M  V30 10 O 2.910997 1.387435 -0.993128 0
M  V30 11 C 3.087763 1.882189 1.370053 0
M  V30 12 C 4.453339 2.036094 1.133166 0
M  V30 13 C 5.301047 2.371562 2.193372 0
M  V30 14 C 4.705936 2.529035 3.426341 0
M  V30 15 C 3.347398 2.377886 3.672089 0
M  V30 16 C 2.526618 2.047775 2.618745 0
M  V30 17 N 1.197368 1.875134 2.727158 0
M  V30 18 N -2.596938 -1.341398 0.360163 0
M  V30 19 C -2.799448 -2.098529 -0.755325 0
M  V30 20 C -3.988677 -2.057489 -1.471782 0
M  V30 21 C -4.170907 -2.841185 -2.609332 0
M  V30 22 C -3.095639 -3.633674 -2.944286 0
M  V30 23 C -1.890132 -3.727403 -2.285931 0
M  V30 24 C -1.768980 -2.921976 -1.159741 0
M  V30 25 C -0.568507 -2.967796 -0.442665 0
M  V30 26 O 0.398420 -3.697817 -0.767169 0
M  V30 27 H 1.088642 -2.831313 3.496806 0
M  V30 28 H 1.335070 -4.118527 2.291363 0
M  V30 29 H -0.332994 -3.656106 2.688403 0
M  V30 30 H 1.028704 -1.216445 1.880451 0
M  V30 31 H 1.588791 -2.488217 0.776260 0
M  V30 32 H -1.546143 1.667205 1.042649 0
M  V30 33 H -1.312728 2.166884 2.729278 0
M  V30 34 H 2.645175 1.985092 -1.751627 0
M  V30 35 H 4.886748 1.905044 0.154266 0
M  V30 36 H 6.369516 2.502320 2.057308 0
M  V30 37 H 5.384100 2.789235 4.232075 0
M  V30 38 H 2.915960 2.509758 4.654784 0
M  V30 39 H -4.769259 -1.395210 -1.115456 0
M  V30 40 H -5.090468 -2.817809 -3.174485 0
M  V30 41 H -3.221325 -4.260894 -3.841336 0
M  V30 42 H -1.097768 -4.381105 -2.623420 0
M  V30 END ATOM
M  V30 BEGIN BOND
M  V30 1 1 1 2
M  V30 2 1 2 3
M  V30 3 1 3 4
M  V30 4 1 4 5
M  V30 5 1 5 6
M  V30 6 1 6 7
M  V30 7 2 7 8
M  V30 8 1 8 9
M  V30 9 1 9 10
M  V30 10 2 9 11
M  V30 11 1 11 12
M  V30 12 2 12 13
M  V30 13 1 13 14
M  V30 14 2 14 15
M  V30 15 1 15 16
M  V30 16 2 16 17
M  V30 17 2 4 18
M  V30 18 1 18 19
M  V30 19 2 19 20
M  V30 20 1 20 21
M  V30 21 2 21 22
M  V30 22 1 22 23
M  V30 23 2 23 24
M  V30 24 1 24 25
M  V30 25 2 25 26
M  V30 26 1 25 3
M  V30 27 1 17 7
M  V30 28 1 24 19
M  V30 29 1 16 11
M  V30 30 1 1 27
M  V30 31 1 1 28
M  V30 32 1 1 29
M  V30 33 1 2 30
M  V30 34 1 2 31
M  V30 35 1 6 32
M  V30 36 1 6 33
M  V30 37 1 10 34
M  V30 38 1 12 35
M  V30 39 1 13 36
M  V30 40 1 14 37
M  V30 41 1 15 38
M  V30 42 1 20 39
M  V30 43 1 21 40
M  V30 44 1 22 41
M  V30 45 1 23 42
M  V30 END BOND
M  V30 END CTAB
M  END
>  <Dataset>  (103) 
ChEMBL_Kinases

>  <Ligand_Instance>  (103) 
nan

>  <PDB_ID>  (103) 
nan

>  <Standardized_SMILES>  (103) 
CCn1c(SCc2nc(O)c3ccccc3n2)nc2ccccc2c1=O

>  <Name>  (103) 
nan

>  <Pocket>  (103) 
nan

>  <ATP_Site>  (103) 
nan

>  <Peripheral>  (103) 
nan

>  <Num_H_Atoms_ProtBoundConf>  (103) 
nan

>  <Num_Resolved_Atoms>  (103) 
nan

>  <Num_Not_Resolved_Atoms>  (103) 
nan

$$$$
CHEMBL1570159
     RDKit          3D

  0  0  0  0  0  0  0  0  0  0999 V3000
M  V30 BEGIN CTAB
M  V30 COUNTS 48 52 0 0 0
M  V30 BEGIN ATOM
M  V30 1 N 6.298428 -4.066297 2.214647 0
M  V30 2 C 5.626490 -3.168504 1.899309 0
M  V30 3 C 4.810033 -2.046850 1.519623 0
M  V30 4 C 5.350443 -0.755353 1.187104 0
M  V30 5 N 5.803967 0.279602 0.925547 0
M  V30 6 C 3.494914 -2.221635 1.476818 0
M  V30 7 C 2.948359 -3.449759 1.790703 0
M  V30 8 C 1.577740 -3.735137 1.775689 0
M  V30 9 C 0.753911 -2.687103 1.416571 0
M  V30 10 C 1.292127 -1.445334 1.098357 0
M  V30 11 C 2.647948 -1.190086 1.120891 0
M  V30 12 N 0.224138 -0.562986 0.774211 0
M  V30 13 C 0.117676 0.824045 0.378522 0
M  V30 14 C -1.031865 1.393097 0.697616 0
M  V30 15 C -1.159211 2.819721 0.297941 0
M  V30 16 C -0.616122 2.859157 -1.137905 0
M  V30 17 C 0.856287 2.570517 -1.166117 0
M  V30 18 C 1.286839 1.410873 -0.312849 0
M  V30 19 C -2.171043 0.752200 1.399492 0
M  V30 20 C -1.856423 -0.625588 1.899296 0
M  V30 21 C -3.080758 -1.432410 2.171595 0
M  V30 22 C -3.839234 -1.750047 0.924547 0
M  V30 23 C -2.964685 -2.295528 -0.173174 0
M  V30 24 C -1.740336 -1.443546 -0.408098 0
M  V30 25 C -1.010082 -1.347873 0.906899 0
M  V30 26 N -0.528047 -2.622174 1.307429 0
M  V30 27 H 3.617172 -4.259256 2.070375 0
M  V30 28 H 1.225852 -4.716404 2.032484 0
M  V30 29 H 3.094235 -0.257970 0.884852 0
M  V30 30 H -0.619544 3.507583 0.949524 0
M  V30 31 H -2.238401 3.068904 0.192263 0
M  V30 32 H -1.210892 2.184422 -1.762747 0
M  V30 33 H -0.776119 3.888501 -1.498905 0
M  V30 34 H 1.361910 3.536081 -0.875266 0
M  V30 35 H 1.118696 2.420309 -2.242046 0
M  V30 36 H 1.798755 0.668623 -0.958070 0
M  V30 37 H 2.007023 1.834215 0.448336 0
M  V30 38 H -3.057344 0.780365 0.734112 0
M  V30 39 H -2.378058 1.390595 2.301893 0
M  V30 40 H -1.277633 -0.534603 2.864882 0
M  V30 41 H -3.751823 -0.911676 2.874056 0
M  V30 42 H -2.763584 -2.384727 2.640289 0
M  V30 43 H -4.571319 -2.556981 1.176804 0
M  V30 44 H -4.445964 -0.901630 0.580055 0
M  V30 45 H -3.587356 -2.306718 -1.102075 0
M  V30 46 H -2.652190 -3.312732 0.146210 0
M  V30 47 H -2.089994 -0.460946 -0.744444 0
M  V30 48 H -1.150893 -1.906171 -1.202519 0
M  V30 END ATOM
M  V30 BEGIN BOND
M  V30 1 3 1 2
M  V30 2 1 2 3
M  V30 3 1 3 4
M  V30 4 3 4 5
M  V30 5 2 3 6 CFG=2
M  V30 6 1 6 7
M  V30 7 2 7 8
M  V30 8 1 8 9
M  V30 9 1 9 10
M  V30 10 2 10 11
M  V30 11 1 10 12
M  V30 12 1 12 13
M  V30 13 2 13 14
M  V30 14 1 14 15
M  V30 15 1 15 16
M  V30 16 1 16 17
M  V30 17 1 17 18
M  V30 18 1 14 19
M  V30 19 1 19 20
M  V30 20 1 20 21
M  V30 21 1 21 22
M  V30 22 1 22 23
M  V30 23 1 23 24
M  V30 24 1 24 25
M  V30 25 1 25 26
M  V30 26 1 11 6
M  V30 27 1 25 12
M  V30 28 2 26 9
M  V30 29 1 18 13
M  V30 30 1 25 20
M  V30 31 1 7 27
M  V30 32 1 8 28
M  V30 33 1 11 29
M  V30 34 1 15 30
M  V30 35 1 15 31
M  V30 36 1 16 32
M  V30 37 1 16 33
M  V30 38 1 17 34
M  V30 39 1 17 35
M  V30 40 1 18 36
M  V30 41 1 18 37
M  V30 42 1 19 38
M  V30 43 1 19 39
M  V30 44 1 20 40
M  V30 45 1 21 41
M  V30 46 1 21 42
M  V30 47 1 22 43
M  V30 48 1 22 44
M  V30 49 1 23 45
M  V30 50 1 23 46
M  V30 51 1 24 47
M  V30 52 1 24 48
M  V30 END BOND
M  V30 END CTAB
M  END
>  <Dataset>  (104) 
ChEMBL_Kinases

>  <Ligand_Instance>  (104) 
nan

>  <PDB_ID>  (104) 
nan

>  <Standardized_SMILES>  (104) 
N#CC(C#N)=c1ccc2c(c1)N1C3=C(CCCC3)CC3CCCCC31N=2

>  <Name>  (104) 
nan

>  <Pocket>  (104) 
nan

>  <ATP_Site>  (104) 
nan

>  <Peripheral>  (104) 
nan

>  <Num_H_Atoms_ProtBoundConf>  (104) 
nan

>  <Num_Resolved_Atoms>  (104) 
nan

>  <Num_Not_Resolved_Atoms>  (104) 
nan

$$$$
CHEMBL1570200
     RDKit          3D

  0  0  0  0  0  0  0  0  0  0999 V3000
M  V30 BEGIN CTAB
M  V30 COUNTS 54 56 0 0 0
M  V30 BEGIN ATOM
M  V30 1 C 4.257871 -3.434564 5.680744 0
M  V30 2 O 3.852826 -3.122662 4.395553 0
M  V30 3 C 2.660083 -2.754971 3.876064 0
M  V30 4 C 1.509040 -2.605805 4.610353 0
M  V30 5 C 0.299075 -2.241266 4.054309 0
M  V30 6 C 0.179013 -1.997383 2.699025 0
M  V30 7 N -1.049883 -1.622013 2.062040 0
M  V30 8 C -1.229814 -0.204919 1.904925 0
M  V30 9 C -0.997953 0.425103 0.648399 0
M  V30 10 O -1.242520 1.682975 0.798395 0
M  V30 11 N -0.590827 0.134366 -0.695458 0
M  V30 12 C -0.562854 1.347636 -1.475001 0
M  V30 13 C 0.714319 1.815078 -1.306139 0
M  V30 14 C 1.148225 2.995999 -1.905936 0
M  V30 15 C 0.199766 3.675873 -2.692243 0
M  V30 16 O 0.323254 4.865838 -3.416104 0
M  V30 17 C 1.512283 5.620161 -3.474156 0
M  V30 18 C -1.088577 3.208236 -2.861974 0
M  V30 19 Cl -2.379186 3.908096 -3.804812 0
M  V30 20 C -1.496524 2.007298 -2.239300 0
M  V30 21 S -2.099692 -2.890463 1.513038 0
M  V30 22 O -1.582932 -4.191650 2.061057 0
M  V30 23 O -3.483415 -2.702854 2.178254 0
M  V30 24 C -2.251249 -2.970249 -0.212079 0
M  V30 25 C -1.451906 -3.843958 -0.981118 0
M  V30 26 C -0.411384 -4.796073 -0.458535 0
M  V30 27 N -1.782688 -3.685336 -2.278374 0
M  V30 28 O -2.732189 -2.779879 -2.370358 0
M  V30 29 C -3.014200 -2.349998 -1.148590 0
M  V30 30 C -4.039032 -1.314052 -0.896754 0
M  V30 31 C 1.347553 -2.142342 1.928832 0
M  V30 32 C 2.555717 -2.514898 2.524632 0
M  V30 33 H 5.171430 -2.900721 6.031957 0
M  V30 34 H 4.530743 -4.538787 5.669959 0
M  V30 35 H 3.511127 -3.316084 6.490598 0
M  V30 36 H 1.532666 -2.800065 5.666251 0
M  V30 37 H -0.569166 -2.142014 4.682753 0
M  V30 38 H -2.283494 0.024348 2.275579 0
M  V30 39 H -0.617214 0.325053 2.745430 0
M  V30 40 H -0.399581 -0.870135 -0.803558 0
M  V30 41 H 1.586240 1.446443 -0.740520 0
M  V30 42 H 2.080797 3.504664 -1.878404 0
M  V30 43 H 1.502911 6.537227 -2.875315 0
M  V30 44 H 1.736047 5.889373 -4.534444 0
M  V30 45 H 2.406294 5.038754 -3.147471 0
M  V30 46 H -2.423930 1.469656 -2.227950 0
M  V30 47 H 0.082094 -4.275807 0.420639 0
M  V30 48 H -0.957060 -5.649306 -0.035354 0
M  V30 49 H 0.347807 -5.068729 -1.198988 0
M  V30 50 H -3.838531 -0.356250 -1.448899 0
M  V30 51 H -4.176234 -1.142124 0.197269 0
M  V30 52 H -5.014252 -1.704208 -1.261918 0
M  V30 53 H 1.249109 -1.941464 0.849746 0
M  V30 54 H 3.360953 -2.574599 1.812652 0
M  V30 END ATOM
M  V30 BEGIN BOND
M  V30 1 1 1 2
M  V30 2 1 2 3
M  V30 3 2 3 4
M  V30 4 1 4 5
M  V30 5 2 5 6
M  V30 6 1 6 7
M  V30 7 1 7 8
M  V30 8 1 8 9
M  V30 9 2 9 10
M  V30 10 1 9 11
M  V30 11 1 11 12
M  V30 12 2 12 13
M  V30 13 1 13 14
M  V30 14 2 14 15
M  V30 15 1 15 16
M  V30 16 1 16 17
M  V30 17 1 15 18
M  V30 18 1 18 19
M  V30 19 2 18 20
M  V30 20 1 7 21
M  V30 21 2 21 22
M  V30 22 2 21 23
M  V30 23 1 21 24
M  V30 24 1 24 25
M  V30 25 1 25 26
M  V30 26 2 25 27
M  V30 27 1 27 28
M  V30 28 1 28 29
M  V30 29 1 29 30
M  V30 30 1 6 31
M  V30 31 2 31 32
M  V30 32 1 32 3
M  V30 33 1 20 12
M  V30 34 2 29 24
M  V30 35 1 1 33
M  V30 36 1 1 34
M  V30 37 1 1 35
M  V30 38 1 4 36
M  V30 39 1 5 37
M  V30 40 1 8 38
M  V30 41 1 8 39
M  V30 42 1 11 40
M  V30 43 1 13 41
M  V30 44 1 14 42
M  V30 45 1 17 43
M  V30 46 1 17 44
M  V30 47 1 17 45
M  V30 48 1 20 46
M  V30 49 1 26 47
M  V30 50 1 26 48
M  V30 51 1 26 49
M  V30 52 1 30 50
M  V30 53 1 30 51
M  V30 54 1 30 52
M  V30 55 1 31 53
M  V30 56 1 32 54
M  V30 END BOND
M  V30 END CTAB
M  END
>  <Dataset>  (105) 
ChEMBL_Kinases

>  <Ligand_Instance>  (105) 
nan

>  <PDB_ID>  (105) 
nan

>  <Standardized_SMILES>  (105) 
COc1ccc(N(CC(=O)Nc2ccc(OC)c(Cl)c2)S(=O)(=O)c2c(C)noc2C)cc1

>  <Name>  (105) 
nan

>  <Pocket>  (105) 
nan

>  <ATP_Site>  (105) 
nan

>  <Peripheral>  (105) 
nan

>  <Num_H_Atoms_ProtBoundConf>  (105) 
nan

>  <Num_Resolved_Atoms>  (105) 
nan

>  <Num_Not_Resolved_Atoms>  (105) 
nan

$$$$
CHEMBL1571352
     RDKit          3D

  0  0  0  0  0  0  0  0  0  0999 V3000
M  V30 BEGIN CTAB
M  V30 COUNTS 32 33 0 0 0
M  V30 BEGIN ATOM
M  V30 1 C -0.026720 -3.136107 6.371925 0
M  V30 2 O 0.210223 -2.781958 5.016488 0
M  V30 3 C 1.090315 -3.459977 4.183094 0
M  V30 4 O 1.713574 -4.456373 4.680880 0
M  V30 5 C 1.231447 -2.978263 2.805108 0
M  V30 6 C 0.575200 -1.895585 2.210260 0
M  V30 7 C 1.033489 -1.837300 0.909419 0
M  V30 8 C 0.656619 -0.878941 -0.141562 0
M  V30 9 C 1.261562 -1.032655 -1.372700 0
M  V30 10 C 0.911797 -0.132746 -2.370291 0
M  V30 11 C -0.011141 0.865337 -2.101349 0
M  V30 12 O -0.325751 1.729435 -3.113844 0
M  V30 13 C 0.196085 1.705334 -4.404578 0
M  V30 14 C -0.615861 1.018920 -0.870510 0
M  V30 15 O -1.526450 2.053024 -0.709241 0
M  V30 16 C -2.192152 2.283522 0.516232 0
M  V30 17 C -0.263037 0.112437 0.133074 0
M  V30 18 O 1.901311 -2.813216 0.735441 0
M  V30 19 N 2.025691 -3.493763 1.849948 0
M  V30 20 H -1.048879 -3.586024 6.479387 0
M  V30 21 H -0.031450 -2.190772 6.963277 0
M  V30 22 H 0.732444 -3.832022 6.765049 0
M  V30 23 H -0.131990 -1.253100 2.674050 0
M  V30 24 H 1.983217 -1.795704 -1.619580 0
M  V30 25 H 1.352495 -0.205805 -3.349241 0
M  V30 26 H -0.461571 2.339202 -5.046241 0
M  V30 27 H 0.196296 0.693837 -4.870055 0
M  V30 28 H 1.216801 2.152993 -4.470002 0
M  V30 29 H -1.579423 2.058575 1.404282 0
M  V30 30 H -2.441547 3.384763 0.502178 0
M  V30 31 H -3.201851 1.790485 0.549530 0
M  V30 32 H -0.732857 0.228151 1.096945 0
M  V30 END ATOM
M  V30 BEGIN BOND
M  V30 1 1 1 2
M  V30 2 1 2 3
M  V30 3 2 3 4
M  V30 4 1 3 5
M  V30 5 1 5 6
M  V30 6 2 6 7
M  V30 7 1 7 8
M  V30 8 2 8 9
M  V30 9 1 9 10
M  V30 10 2 10 11
M  V30 11 1 11 12
M  V30 12 1 12 13
M  V30 13 1 11 14
M  V30 14 1 14 15
M  V30 15 1 15 16
M  V30 16 2 14 17
M  V30 17 1 7 18
M  V30 18 1 18 19
M  V30 19 2 19 5
M  V30 20 1 17 8
M  V30 21 1 1 20
M  V30 22 1 1 21
M  V30 23 1 1 22
M  V30 24 1 6 23
M  V30 25 1 9 24
M  V30 26 1 10 25
M  V30 27 1 13 26
M  V30 28 1 13 27
M  V30 29 1 13 28
M  V30 30 1 16 29
M  V30 31 1 16 30
M  V30 32 1 16 31
M  V30 33 1 17 32
M  V30 END BOND
M  V30 END CTAB
M  END
>  <Dataset>  (106) 
ChEMBL_Kinases

>  <Ligand_Instance>  (106) 
nan

>  <PDB_ID>  (106) 
nan

>  <Standardized_SMILES>  (106) 
COC(=O)c1cc(-c2ccc(OC)c(OC)c2)on1

>  <Name>  (106) 
nan

>  <Pocket>  (106) 
nan

>  <ATP_Site>  (106) 
nan

>  <Peripheral>  (106) 
nan

>  <Num_H_Atoms_ProtBoundConf>  (106) 
nan

>  <Num_Resolved_Atoms>  (106) 
nan

>  <Num_Not_Resolved_Atoms>  (106) 
nan

$$$$
CHEMBL1570276
     RDKit          3D

  0  0  0  0  0  0  0  0  0  0999 V3000
M  V30 BEGIN CTAB
M  V30 COUNTS 32 34 0 0 0
M  V30 BEGIN ATOM
M  V30 1 C -2.676133 -2.619779 4.922757 0
M  V30 2 C -1.758722 -2.671879 3.746743 0
M  V30 3 C -1.778772 -3.793077 2.933244 0
M  V30 4 C -0.922629 -3.811583 1.858304 0
M  V30 5 C -0.052092 -2.803921 1.532821 0
M  V30 6 N 0.869272 -2.533151 0.593341 0
M  V30 7 C 1.401938 -1.321435 0.839191 0
M  V30 8 C 2.440539 -0.497808 0.167804 0
M  V30 9 C 1.870093 0.393351 -0.861669 0
M  V30 10 C 1.699316 0.071716 -2.192267 0
M  V30 11 C 1.143865 1.037980 -3.023507 0
M  V30 12 C 0.774823 2.286211 -2.522427 0
M  V30 13 N 0.203116 3.251406 -3.428956 0
M  V30 14 C 0.951677 2.602802 -1.173134 0
M  V30 15 C 1.511597 1.621940 -0.347068 0
M  V30 16 O 0.821891 -0.825667 1.928799 0
M  V30 17 C -0.059677 -1.688045 2.376591 0
M  V30 18 C -0.906997 -1.618209 3.478976 0
M  V30 19 H -3.737974 -2.547706 4.561617 0
M  V30 20 H -2.484464 -1.682357 5.482241 0
M  V30 21 H -2.609445 -3.503645 5.566491 0
M  V30 22 H -2.452719 -4.607523 3.159540 0
M  V30 23 H -0.900291 -4.672575 1.186825 0
M  V30 24 H 3.085332 0.026849 0.902264 0
M  V30 25 H 3.116370 -1.214255 -0.358507 0
M  V30 26 H 2.008778 -0.912962 -2.504634 0
M  V30 27 H 1.010818 0.778981 -4.074786 0
M  V30 28 H 0.530243 3.783569 -4.272773 0
M  V30 29 H -0.751047 3.367767 -3.064159 0
M  V30 30 H 0.654185 3.577485 -0.823988 0
M  V30 31 H 1.615851 1.942259 0.680613 0
M  V30 32 H -0.920856 -0.761036 4.137087 0
M  V30 END ATOM
M  V30 BEGIN BOND
M  V30 1 1 1 2
M  V30 2 2 2 3
M  V30 3 1 3 4
M  V30 4 2 4 5
M  V30 5 1 5 6
M  V30 6 2 6 7
M  V30 7 1 7 8
M  V30 8 1 8 9
M  V30 9 2 9 10
M  V30 10 1 10 11
M  V30 11 2 11 12
M  V30 12 1 12 13
M  V30 13 1 12 14
M  V30 14 2 14 15
M  V30 15 1 7 16
M  V30 16 1 16 17
M  V30 17 2 17 18
M  V30 18 1 18 2
M  V30 19 1 17 5
M  V30 20 1 15 9
M  V30 21 1 1 19
M  V30 22 1 1 20
M  V30 23 1 1 21
M  V30 24 1 3 22
M  V30 25 1 4 23
M  V30 26 1 8 24
M  V30 27 1 8 25
M  V30 28 1 10 26
M  V30 29 1 11 27
M  V30 30 1 13 28
M  V30 31 1 13 29
M  V30 32 1 14 30
M  V30 33 1 15 31
M  V30 34 1 18 32
M  V30 END BOND
M  V30 END CTAB
M  END
>  <Dataset>  (107) 
ChEMBL_Kinases

>  <Ligand_Instance>  (107) 
nan

>  <PDB_ID>  (107) 
nan

>  <Standardized_SMILES>  (107) 
Cc1ccc2nc(Cc3ccc(N)cc3)oc2c1

>  <Name>  (107) 
nan

>  <Pocket>  (107) 
nan

>  <ATP_Site>  (107) 
nan

>  <Peripheral>  (107) 
nan

>  <Num_H_Atoms_ProtBoundConf>  (107) 
nan

>  <Num_Resolved_Atoms>  (107) 
nan

>  <Num_Not_Resolved_Atoms>  (107) 
nan

$$$$
CHEMBL1570559
     RDKit          3D

  0  0  0  0  0  0  0  0  0  0999 V3000
M  V30 BEGIN CTAB
M  V30 COUNTS 42 43 0 0 0
M  V30 BEGIN ATOM
M  V30 1 C -0.863931 -5.878712 0.005237 0
M  V30 2 C 0.610495 -5.760978 0.300244 0
M  V30 3 C 0.903698 -4.671603 1.306453 0
M  V30 4 C 0.447297 -3.346147 0.811565 0
M  V30 5 C 1.368927 -2.623889 0.085557 0
M  V30 6 C 0.967413 -1.394335 -0.381685 0
M  V30 7 C -0.262132 -0.812139 -0.197070 0
M  V30 8 O -0.804484 0.370418 -0.583784 0
M  V30 9 C -0.326627 1.439729 -1.298400 0
M  V30 10 C 0.830934 2.073603 -0.624646 0
M  V30 11 C 2.205160 2.000618 -0.655348 0
M  V30 12 C 2.774283 2.874678 0.244296 0
M  V30 13 C 1.673051 3.473509 0.813706 0
M  V30 14 C 1.733118 4.506838 1.857857 0
M  V30 15 O 0.850293 5.138569 2.467314 0
M  V30 16 O 2.949983 4.952958 2.346065 0
M  V30 17 C 3.011592 5.943237 3.346845 0
M  V30 18 O 0.570402 2.995262 0.296680 0
M  V30 19 C -1.177319 -1.569709 0.544150 0
M  V30 20 O -2.469381 -1.153513 0.836992 0
M  V30 21 C -3.309658 -1.999391 1.593946 0
M  V30 22 C -0.824606 -2.827177 1.044420 0
M  V30 23 H -1.201615 -5.189143 -0.801749 0
M  V30 24 H -1.476276 -5.749786 0.918096 0
M  V30 25 H -1.104589 -6.913050 -0.367210 0
M  V30 26 H 1.203371 -5.538911 -0.588105 0
M  V30 27 H 0.967710 -6.711713 0.743620 0
M  V30 28 H 1.962158 -4.683339 1.585408 0
M  V30 29 H 0.304519 -4.944940 2.221527 0
M  V30 30 H 2.377057 -2.931926 -0.151423 0
M  V30 31 H 1.638166 -0.790570 -0.958502 0
M  V30 32 H -1.143569 2.179594 -1.452640 0
M  V30 33 H -0.010824 1.055855 -2.305433 0
M  V30 34 H 2.662911 1.309383 -1.343913 0
M  V30 35 H 3.832048 3.011292 0.415410 0
M  V30 36 H 2.215495 6.699706 3.200273 0
M  V30 37 H 3.986182 6.464178 3.276741 0
M  V30 38 H 2.895619 5.453528 4.345750 0
M  V30 39 H -3.518880 -2.967760 1.094136 0
M  V30 40 H -4.269638 -1.549508 1.840879 0
M  V30 41 H -2.833800 -2.271143 2.579308 0
M  V30 42 H -1.479664 -3.456117 1.619143 0
M  V30 END ATOM
M  V30 BEGIN BOND
M  V30 1 1 1 2
M  V30 2 1 2 3
M  V30 3 1 3 4
M  V30 4 2 4 5
M  V30 5 1 5 6
M  V30 6 2 6 7
M  V30 7 1 7 8
M  V30 8 1 8 9
M  V30 9 1 9 10
M  V30 10 2 10 11
M  V30 11 1 11 12
M  V30 12 2 12 13
M  V30 13 1 13 14
M  V30 14 2 14 15
M  V30 15 1 14 16
M  V30 16 1 16 17
M  V30 17 1 13 18
M  V30 18 1 7 19
M  V30 19 1 19 20
M  V30 20 1 20 21
M  V30 21 2 19 22
M  V30 22 1 22 4
M  V30 23 1 18 10
M  V30 24 1 1 23
M  V30 25 1 1 24
M  V30 26 1 1 25
M  V30 27 1 2 26
M  V30 28 1 2 27
M  V30 29 1 3 28
M  V30 30 1 3 29
M  V30 31 1 5 30
M  V30 32 1 6 31
M  V30 33 1 9 32
M  V30 34 1 9 33
M  V30 35 1 11 34
M  V30 36 1 12 35
M  V30 37 1 17 36
M  V30 38 1 17 37
M  V30 39 1 17 38
M  V30 40 1 21 39
M  V30 41 1 21 40
M  V30 42 1 21 41
M  V30 43 1 22 42
M  V30 END BOND
M  V30 END CTAB
M  END
>  <Dataset>  (108) 
ChEMBL_Kinases

>  <Ligand_Instance>  (108) 
nan

>  <PDB_ID>  (108) 
nan

>  <Standardized_SMILES>  (108) 
CCCc1ccc(OCc2ccc(C(=O)OC)o2)c(OC)c1

>  <Name>  (108) 
nan

>  <Pocket>  (108) 
nan

>  <ATP_Site>  (108) 
nan

>  <Peripheral>  (108) 
nan

>  <Num_H_Atoms_ProtBoundConf>  (108) 
nan

>  <Num_Resolved_Atoms>  (108) 
nan

>  <Num_Not_Resolved_Atoms>  (108) 
nan

$$$$
CHEMBL1570633
     RDKit          3D

  0  0  0  0  0  0  0  0  0  0999 V3000
M  V30 BEGIN CTAB
M  V30 COUNTS 38 40 0 0 0
M  V30 BEGIN ATOM
M  V30 1 C -0.901150 -5.584792 3.797931 0
M  V30 2 O 0.374513 -5.008155 3.713364 0
M  V30 3 C 0.607130 -3.921967 2.892985 0
M  V30 4 C 1.951654 -3.577176 3.014240 0
M  V30 5 C 2.440427 -2.487796 2.267912 0
M  V30 6 C 1.529720 -1.840657 1.464972 0
M  V30 7 C 0.199575 -2.155638 1.323341 0
M  V30 8 C -0.739015 -1.461406 0.456921 0
M  V30 9 C -0.345748 -0.402193 -0.329795 0
M  V30 10 C -1.259592 0.247603 -1.161282 0
M  V30 11 N -0.826915 1.313538 -1.960298 0
M  V30 12 C -0.544470 2.722698 -2.037948 0
M  V30 13 C 0.567225 3.015776 -1.094596 0
M  V30 14 C 0.280991 3.380454 0.206582 0
M  V30 15 C 1.346819 3.648207 1.067201 0
M  V30 16 C 2.638103 3.526690 0.545349 0
M  V30 17 N 2.856757 3.173450 -0.710710 0
M  V30 18 C 1.869734 2.903173 -1.586832 0
M  V30 19 N -2.527072 -0.179593 -1.178697 0
M  V30 20 C -2.928156 -1.211793 -0.417363 0
M  V30 21 N -2.030134 -1.821427 0.374673 0
M  V30 22 C -0.231238 -3.223350 2.069430 0
M  V30 23 H -1.634063 -5.245332 3.059373 0
M  V30 24 H -0.833395 -6.692869 3.656725 0
M  V30 25 H -1.352695 -5.358113 4.809567 0
M  V30 26 H 2.733525 -4.040753 3.630363 0
M  V30 27 H 3.475791 -2.154208 2.306130 0
M  V30 28 H 1.918240 -1.004784 0.897529 0
M  V30 29 H 0.666391 -0.028260 -0.341295 0
M  V30 30 H -0.670252 0.759413 -2.846856 0
M  V30 31 H -1.453571 3.267739 -1.671829 0
M  V30 32 H -0.289487 3.032889 -3.060699 0
M  V30 33 H -0.741498 3.442645 0.505392 0
M  V30 34 H 1.035669 3.925491 2.063046 0
M  V30 35 H 3.375615 3.759415 1.306546 0
M  V30 36 H 2.104642 2.619691 -2.600804 0
M  V30 37 H -3.955696 -1.593759 -0.401865 0
M  V30 38 H -1.233655 -3.565984 2.053477 0
M  V30 END ATOM
M  V30 BEGIN BOND
M  V30 1 1 1 2
M  V30 2 1 2 3
M  V30 3 2 3 4
M  V30 4 1 4 5
M  V30 5 2 5 6
M  V30 6 1 6 7
M  V30 7 1 7 8
M  V30 8 2 8 9
M  V30 9 1 9 10
M  V30 10 1 10 11
M  V30 11 1 11 12
M  V30 12 1 12 13
M  V30 13 2 13 14
M  V30 14 1 14 15
M  V30 15 2 15 16
M  V30 16 1 16 17
M  V30 17 2 17 18
M  V30 18 2 10 19
M  V30 19 1 19 20
M  V30 20 2 20 21
M  V30 21 2 7 22
M  V30 22 1 22 3
M  V30 23 1 21 8
M  V30 24 1 18 13
M  V30 25 1 1 23
M  V30 26 1 1 24
M  V30 27 1 1 25
M  V30 28 1 4 26
M  V30 29 1 5 27
M  V30 30 1 6 28
M  V30 31 1 9 29
M  V30 32 1 11 30
M  V30 33 1 12 31
M  V30 34 1 12 32
M  V30 35 1 14 33
M  V30 36 1 15 34
M  V30 37 1 16 35
M  V30 38 1 18 36
M  V30 39 1 20 37
M  V30 40 1 22 38
M  V30 END BOND
M  V30 END CTAB
M  END
>  <Dataset>  (109) 
ChEMBL_Kinases

>  <Ligand_Instance>  (109) 
nan

>  <PDB_ID>  (109) 
nan

>  <Standardized_SMILES>  (109) 
COc1cccc(-c2cc(NCc3cccnc3)ncn2)c1

>  <Name>  (109) 
nan

>  <Pocket>  (109) 
nan

>  <ATP_Site>  (109) 
nan

>  <Peripheral>  (109) 
nan

>  <Num_H_Atoms_ProtBoundConf>  (109) 
nan

>  <Num_Resolved_Atoms>  (109) 
nan

>  <Num_Not_Resolved_Atoms>  (109) 
nan

$$$$
CHEMBL1570839
     RDKit          3D

  0  0  0  0  0  0  0  0  0  0999 V3000
M  V30 BEGIN CTAB
M  V30 COUNTS 45 46 0 0 0
M  V30 BEGIN ATOM
M  V30 1 C 1.293479 -3.845405 2.204104 0
M  V30 2 N 0.945287 -2.501842 2.612024 0
M  V30 3 C 1.796221 -1.445885 2.649287 0
M  V30 4 C 3.221296 -1.540879 2.268122 0
M  V30 5 N 3.382345 -1.237238 0.874688 0
M  V30 6 C 2.976509 0.064638 0.477611 0
M  V30 7 O 2.508174 0.902686 1.279960 0
M  V30 8 O 3.019660 0.619954 -0.792669 0
M  V30 9 C 2.593448 1.924092 -1.076887 0
M  V30 10 C 2.809374 2.130149 -2.579660 0
M  V30 11 C 3.411609 2.959946 -0.311526 0
M  V30 12 C 1.121477 2.130180 -0.799178 0
M  V30 13 N 1.037081 -0.431619 3.083434 0
M  V30 14 N -0.211627 -0.796942 3.311646 0
M  V30 15 C -0.300893 -2.119227 3.018518 0
M  V30 16 S -1.696228 -3.203197 3.143121 0
M  V30 17 C -2.643563 -3.330155 1.621377 0
M  V30 18 C -3.312518 -2.073689 1.219572 0
M  V30 19 C -2.786146 -0.990168 0.575336 0
M  V30 20 Cl -1.106378 -1.130297 0.108613 0
M  V30 21 C -3.562287 0.125700 0.299772 0
M  V30 22 C -4.895866 0.191856 0.661306 0
M  V30 23 C -5.471867 -0.877296 1.312774 0
M  V30 24 C -4.660430 -1.970651 1.568207 0
M  V30 25 Cl -5.480147 -3.294399 2.405572 0
M  V30 26 H 0.364548 -4.397606 1.919017 0
M  V30 27 H 1.969790 -3.878872 1.343218 0
M  V30 28 H 1.768215 -4.359836 3.055855 0
M  V30 29 H 3.579068 -2.580144 2.421371 0
M  V30 30 H 3.826147 -0.864926 2.923893 0
M  V30 31 H 3.754807 -1.829123 0.096717 0
M  V30 32 H 2.816194 1.161956 -3.105986 0
M  V30 33 H 3.815375 2.577472 -2.690811 0
M  V30 34 H 2.044706 2.817727 -2.963257 0
M  V30 35 H 4.125105 3.455073 -1.027282 0
M  V30 36 H 4.035542 2.471902 0.451143 0
M  V30 37 H 2.743008 3.726326 0.093444 0
M  V30 38 H 0.698038 2.785741 -1.603223 0
M  V30 39 H 1.028501 2.698595 0.156803 0
M  V30 40 H 0.601376 1.155484 -0.778470 0
M  V30 41 H -1.940361 -3.608726 0.776345 0
M  V30 42 H -3.386353 -4.163189 1.722176 0
M  V30 43 H -3.052531 0.924730 -0.209590 0
M  V30 44 H -5.455054 1.098805 0.416063 0
M  V30 45 H -6.495301 -0.824708 1.587597 0
M  V30 END ATOM
M  V30 BEGIN BOND
M  V30 1 1 1 2
M  V30 2 1 2 3
M  V30 3 1 3 4
M  V30 4 1 4 5
M  V30 5 1 5 6
M  V30 6 2 6 7
M  V30 7 1 6 8
M  V30 8 1 8 9
M  V30 9 1 9 10
M  V30 10 1 9 11
M  V30 11 1 9 12
M  V30 12 2 3 13
M  V30 13 1 13 14
M  V30 14 2 14 15
M  V30 15 1 15 16
M  V30 16 1 16 17
M  V30 17 1 17 18
M  V30 18 2 18 19
M  V30 19 1 19 20
M  V30 20 1 19 21
M  V30 21 2 21 22
M  V30 22 1 22 23
M  V30 23 2 23 24
M  V30 24 1 24 25
M  V30 25 1 15 2
M  V30 26 1 24 18
M  V30 27 1 1 26
M  V30 28 1 1 27
M  V30 29 1 1 28
M  V30 30 1 4 29
M  V30 31 1 4 30
M  V30 32 1 5 31
M  V30 33 1 10 32
M  V30 34 1 10 33
M  V30 35 1 10 34
M  V30 36 1 11 35
M  V30 37 1 11 36
M  V30 38 1 11 37
M  V30 39 1 12 38
M  V30 40 1 12 39
M  V30 41 1 12 40
M  V30 42 1 17 41
M  V30 43 1 17 42
M  V30 44 1 21 43
M  V30 45 1 22 44
M  V30 46 1 23 45
M  V30 END BOND
M  V30 END CTAB
M  END
>  <Dataset>  (110) 
ChEMBL_Kinases

>  <Ligand_Instance>  (110) 
nan

>  <PDB_ID>  (110) 
nan

>  <Standardized_SMILES>  (110) 
Cn1c(CNC(=O)OC(C)(C)C)nnc1SCc1c(Cl)cccc1Cl

>  <Name>  (110) 
nan

>  <Pocket>  (110) 
nan

>  <ATP_Site>  (110) 
nan

>  <Peripheral>  (110) 
nan

>  <Num_H_Atoms_ProtBoundConf>  (110) 
nan

>  <Num_Resolved_Atoms>  (110) 
nan

>  <Num_Not_Resolved_Atoms>  (110) 
nan

$$$$
CHEMBL1570890
     RDKit          3D

  0  0  0  0  0  0  0  0  0  0999 V3000
M  V30 BEGIN CTAB
M  V30 COUNTS 34 35 0 0 0
M  V30 BEGIN ATOM
M  V30 1 C -0.223625 -1.092606 3.576989 0
M  V30 2 O 0.554280 -1.074993 2.380208 0
M  V30 3 C 0.975626 -2.237179 1.753112 0
M  V30 4 O 0.616256 -3.302919 2.325067 0
M  V30 5 C 1.774218 -2.211415 0.524363 0
M  V30 6 C 2.137260 -3.439375 -0.011870 0
M  V30 7 C 2.888329 -3.476418 -1.166388 0
M  V30 8 C 3.285228 -2.313568 -1.797814 0
M  V30 9 C 2.925727 -1.092876 -1.266895 0
M  V30 10 C 2.172010 -1.035163 -0.108677 0
M  V30 11 N 1.768715 0.208430 0.489189 0
M  V30 12 C 0.525649 0.704849 0.033028 0
M  V30 13 O -0.030536 -0.004922 -0.813135 0
M  V30 14 N -0.061873 1.898171 0.477963 0
M  V30 15 C -1.334694 2.446375 0.039049 0
M  V30 16 C -2.454789 1.506398 0.328430 0
M  V30 17 C -3.025387 0.497925 -0.416864 0
M  V30 18 C -4.050764 -0.103954 0.284782 0
M  V30 19 C -4.060230 0.592888 1.475489 0
M  V30 20 O -3.132415 1.501456 1.454292 0
M  V30 21 H 0.081512 -0.299004 4.278874 0
M  V30 22 H -0.105257 -2.054142 4.123145 0
M  V30 23 H -1.271375 -0.914078 3.262078 0
M  V30 24 H 1.844334 -4.368637 0.455426 0
M  V30 25 H 3.197156 -4.412448 -1.624501 0
M  V30 26 H 3.881753 -2.284703 -2.715823 0
M  V30 27 H 3.216919 -0.149460 -1.731783 0
M  V30 28 H 2.312692 0.756621 1.216185 0
M  V30 29 H 0.534872 2.396469 1.203870 0
M  V30 30 H -1.504337 3.378374 0.615766 0
M  V30 31 H -1.319280 2.716284 -1.035932 0
M  V30 32 H -2.694817 0.237629 -1.411935 0
M  V30 33 H -4.678059 -0.922405 -0.045071 0
M  V30 34 H -4.746706 0.404912 2.307627 0
M  V30 END ATOM
M  V30 BEGIN BOND
M  V30 1 1 1 2
M  V30 2 1 2 3
M  V30 3 2 3 4
M  V30 4 1 3 5
M  V30 5 2 5 6
M  V30 6 1 6 7
M  V30 7 2 7 8
M  V30 8 1 8 9
M  V30 9 2 9 10
M  V30 10 1 10 11
M  V30 11 1 11 12
M  V30 12 2 12 13
M  V30 13 1 12 14
M  V30 14 1 14 15
M  V30 15 1 15 16
M  V30 16 2 16 17
M  V30 17 1 17 18
M  V30 18 2 18 19
M  V30 19 1 19 20
M  V30 20 1 10 5
M  V30 21 1 20 16
M  V30 22 1 1 21
M  V30 23 1 1 22
M  V30 24 1 1 23
M  V30 25 1 6 24
M  V30 26 1 7 25
M  V30 27 1 8 26
M  V30 28 1 9 27
M  V30 29 1 11 28
M  V30 30 1 14 29
M  V30 31 1 15 30
M  V30 32 1 15 31
M  V30 33 1 17 32
M  V30 34 1 18 33
M  V30 35 1 19 34
M  V30 END BOND
M  V30 END CTAB
M  END
>  <Dataset>  (111) 
ChEMBL_Kinases

>  <Ligand_Instance>  (111) 
nan

>  <PDB_ID>  (111) 
nan

>  <Standardized_SMILES>  (111) 
COC(=O)c1ccccc1NC(=O)NCc1ccco1

>  <Name>  (111) 
nan

>  <Pocket>  (111) 
nan

>  <ATP_Site>  (111) 
nan

>  <Peripheral>  (111) 
nan

>  <Num_H_Atoms_ProtBoundConf>  (111) 
nan

>  <Num_Resolved_Atoms>  (111) 
nan

>  <Num_Not_Resolved_Atoms>  (111) 
nan

$$$$
CHEMBL1570967
     RDKit          3D

  0  0  0  0  0  0  0  0  0  0999 V3000
M  V30 BEGIN CTAB
M  V30 COUNTS 28 29 0 0 0
M  V30 BEGIN ATOM
M  V30 1 C -0.142343 -4.273420 2.399337 0
M  V30 2 O 0.596503 -3.458599 3.295648 0
M  V30 3 C 0.859644 -2.161321 2.911984 0
M  V30 4 C 1.573236 -1.288741 3.717903 0
M  V30 5 C 1.862488 0.002027 3.390560 0
M  V30 6 C 1.418295 0.489058 2.169883 0
M  V30 7 N 1.573207 1.706964 1.627052 0
M  V30 8 C 0.949808 1.634279 0.441712 0
M  V30 9 O 0.891530 2.710240 -0.424757 0
M  V30 10 C 0.391823 0.406861 0.191968 0
M  V30 11 N -0.343976 -0.147239 -0.880212 0
M  V30 12 C -0.743903 0.448212 -2.088600 0
M  V30 13 C -1.509151 -0.174306 -3.171445 0
M  V30 14 O -0.449641 1.639348 -2.336299 0
M  V30 15 C 0.706762 -0.313783 1.319370 0
M  V30 16 C 0.443255 -1.625369 1.712290 0
M  V30 17 H -1.185591 -3.926459 2.284146 0
M  V30 18 H -0.075158 -5.355931 2.677062 0
M  V30 19 H 0.391062 -4.200213 1.416933 0
M  V30 20 H 1.917377 -1.685857 4.677419 0
M  V30 21 H 2.423697 0.629154 4.065648 0
M  V30 22 H 2.066191 2.529267 2.030625 0
M  V30 23 H 0.607689 3.650473 -0.123934 0
M  V30 24 H -0.677398 -1.134928 -0.852137 0
M  V30 25 H -0.871196 -0.468401 -4.051301 0
M  V30 26 H -2.018864 -1.120738 -2.852241 0
M  V30 27 H -2.332051 0.496311 -3.488899 0
M  V30 28 H -0.117690 -2.259877 1.042897 0
M  V30 END ATOM
M  V30 BEGIN BOND
M  V30 1 1 1 2
M  V30 2 1 2 3
M  V30 3 2 3 4
M  V30 4 1 4 5
M  V30 5 2 5 6
M  V30 6 1 6 7
M  V30 7 1 7 8
M  V30 8 1 8 9
M  V30 9 2 8 10
M  V30 10 1 10 11
M  V30 11 1 11 12
M  V30 12 1 12 13
M  V30 13 2 12 14
M  V30 14 1 10 15
M  V30 15 2 15 16
M  V30 16 1 16 3
M  V30 17 1 15 6
M  V30 18 1 1 17
M  V30 19 1 1 18
M  V30 20 1 1 19
M  V30 21 1 4 20
M  V30 22 1 5 21
M  V30 23 1 7 22
M  V30 24 1 9 23
M  V30 25 1 11 24
M  V30 26 1 13 25
M  V30 27 1 13 26
M  V30 28 1 13 27
M  V30 29 1 16 28
M  V30 END BOND
M  V30 END CTAB
M  END
>  <Dataset>  (112) 
ChEMBL_Kinases

>  <Ligand_Instance>  (112) 
nan

>  <PDB_ID>  (112) 
nan

>  <Standardized_SMILES>  (112) 
COc1ccc2[nH]c(O)c(NC(C)=O)c2c1

>  <Name>  (112) 
nan

>  <Pocket>  (112) 
nan

>  <ATP_Site>  (112) 
nan

>  <Peripheral>  (112) 
nan

>  <Num_H_Atoms_ProtBoundConf>  (112) 
nan

>  <Num_Resolved_Atoms>  (112) 
nan

>  <Num_Not_Resolved_Atoms>  (112) 
nan

$$$$
CHEMBL157101
     RDKit          3D

  0  0  0  0  0  0  0  0  0  0999 V3000
M  V30 BEGIN CTAB
M  V30 COUNTS 64 68 0 0 0
M  V30 BEGIN ATOM
M  V30 1 C 6.788446 -1.709801 4.437691 0
M  V30 2 C 6.368353 -0.470952 3.754565 0
M  V30 3 O 7.214969 0.308591 3.239456 0
M  V30 4 N 5.145007 0.184466 3.470386 0
M  V30 5 C 5.239801 1.414829 2.746126 0
M  V30 6 C 4.032404 1.695543 1.896497 0
M  V30 7 N 2.781236 1.301883 2.503161 0
M  V30 8 C 1.610007 1.376596 1.706018 0
M  V30 9 C 0.441430 0.920873 2.262046 0
M  V30 10 C -0.729766 0.965669 1.548629 0
M  V30 11 C -0.800160 1.458549 0.261299 0
M  V30 12 O -1.715351 1.648246 -0.699932 0
M  V30 13 C -3.033911 1.439120 -0.918778 0
M  V30 14 C -3.600865 0.076969 -0.976091 0
M  V30 15 C -3.437277 -0.806839 0.224520 0
M  V30 16 O -3.956132 -2.016843 -0.343117 0
M  V30 17 C -3.334084 -2.073822 -1.591132 0
M  V30 18 C -4.206916 -2.728195 -2.634600 0
M  V30 19 N -5.442208 -1.981675 -2.792832 0
M  V30 20 C -5.723249 -0.966379 -3.620494 0
M  V30 21 C -7.015859 -0.508102 -3.481386 0
M  V30 22 N -7.537073 -1.293643 -2.516581 0
M  V30 23 C -6.601611 -2.170742 -2.106261 0
M  V30 24 C -2.046824 -2.795960 -1.408787 0
M  V30 25 C -0.865650 -2.123712 -1.759549 0
M  V30 26 C 0.296638 -2.847971 -1.583372 0
M  V30 27 C 0.435960 -4.118248 -1.116429 0
M  V30 28 Cl 1.994703 -4.888540 -0.955424 0
M  V30 29 C -0.763103 -4.716965 -0.791437 0
M  V30 30 C -1.990161 -4.085552 -0.927254 0
M  V30 31 Cl -3.413159 -4.958990 -0.464785 0
M  V30 32 O -3.078044 -0.746194 -1.976908 0
M  V30 33 C 0.417561 1.920440 -0.283856 0
M  V30 34 C 1.631324 1.885577 0.427123 0
M  V30 35 C 2.903257 0.878704 3.880518 0
M  V30 36 C 3.839990 -0.333942 3.872304 0
M  V30 37 H 7.496918 -2.257476 3.758316 0
M  V30 38 H 5.908292 -2.322394 4.639913 0
M  V30 39 H 7.327898 -1.510001 5.386499 0
M  V30 40 H 6.115160 1.365577 2.069541 0
M  V30 41 H 5.401608 2.284136 3.417729 0
M  V30 42 H 4.139464 1.187146 0.918460 0
M  V30 43 H 3.979149 2.780644 1.693126 0
M  V30 44 H 0.278436 0.500191 3.241136 0
M  V30 45 H -1.692543 0.654806 1.882243 0
M  V30 46 H -3.429105 2.037492 -1.807922 0
M  V30 47 H -3.599123 1.968190 -0.065086 0
M  V30 48 H -4.716909 0.139266 -1.147073 0
M  V30 49 H -2.353937 -1.073978 0.404435 0
M  V30 50 H -3.978999 -0.509663 1.117211 0
M  V30 51 H -4.431594 -3.782494 -2.413239 0
M  V30 52 H -3.650531 -2.760450 -3.616478 0
M  V30 53 H -4.930170 -0.614120 -4.298693 0
M  V30 54 H -7.342019 0.313454 -4.107946 0
M  V30 55 H -6.695003 -2.938861 -1.346923 0
M  V30 56 H -0.873395 -1.111480 -2.139007 0
M  V30 57 H 1.193524 -2.292328 -1.867839 0
M  V30 58 H -0.738109 -5.748990 -0.405205 0
M  V30 59 H 0.641002 2.356458 -1.273104 0
M  V30 60 H 2.588638 2.211791 0.095172 0
M  V30 61 H 1.946726 0.648903 4.362987 0
M  V30 62 H 3.446263 1.689848 4.413299 0
M  V30 63 H 3.477334 -1.074666 3.114066 0
M  V30 64 H 3.851809 -0.859367 4.826764 0
M  V30 END ATOM
M  V30 BEGIN BOND
M  V30 1 1 1 2
M  V30 2 2 2 3
M  V30 3 1 2 4
M  V30 4 1 4 5
M  V30 5 1 5 6
M  V30 6 1 6 7
M  V30 7 1 7 8
M  V30 8 2 8 9
M  V30 9 1 9 10
M  V30 10 2 10 11
M  V30 11 1 11 12
M  V30 12 1 12 13
M  V30 13 1 13 14
M  V30 14 1 14 15
M  V30 15 1 15 16
M  V30 16 1 16 17
M  V30 17 1 17 18
M  V30 18 1 18 19
M  V30 19 1 19 20
M  V30 20 2 20 21
M  V30 21 1 21 22
M  V30 22 2 22 23
M  V30 23 1 17 24
M  V30 24 2 24 25
M  V30 25 1 25 26
M  V30 26 2 26 27
M  V30 27 1 27 28
M  V30 28 1 27 29
M  V30 29 2 29 30
M  V30 30 1 30 31
M  V30 31 1 17 32
M  V30 32 1 11 33
M  V30 33 2 33 34
M  V30 34 1 7 35
M  V30 35 1 35 36
M  V30 36 1 36 4
M  V30 37 1 34 8
M  V30 38 1 32 14
M  V30 39 1 23 19
M  V30 40 1 30 24
M  V30 41 1 1 37
M  V30 42 1 1 38
M  V30 43 1 1 39
M  V30 44 1 5 40
M  V30 45 1 5 41
M  V30 46 1 6 42
M  V30 47 1 6 43
M  V30 48 1 9 44
M  V30 49 1 10 45
M  V30 50 1 13 46
M  V30 51 1 13 47
M  V30 52 1 14 48
M  V30 53 1 15 49
M  V30 54 1 15 50
M  V30 55 1 18 51
M  V30 56 1 18 52
M  V30 57 1 20 53
M  V30 58 1 21 54
M  V30 59 1 23 55
M  V30 60 1 25 56
M  V30 61 1 26 57
M  V30 62 1 29 58
M  V30 63 1 33 59
M  V30 64 1 34 60
M  V30 65 1 35 61
M  V30 66 1 35 62
M  V30 67 1 36 63
M  V30 68 1 36 64
M  V30 END BOND
M  V30 END CTAB
M  END
>  <Dataset>  (113) 
ChEMBL_Kinases

>  <Ligand_Instance>  (113) 
nan

>  <PDB_ID>  (113) 
nan

>  <Standardized_SMILES>  (113) 
CC(=O)N1CCN(c2ccc(OCC3COC(Cn4ccnc4)(c4ccc(Cl)cc4Cl)O3)cc2)CC1

>  <Name>  (113) 
KETOCONAZOLE

>  <Pocket>  (113) 
nan

>  <ATP_Site>  (113) 
nan

>  <Peripheral>  (113) 
nan

>  <Num_H_Atoms_ProtBoundConf>  (113) 
nan

>  <Num_Resolved_Atoms>  (113) 
nan

>  <Num_Not_Resolved_Atoms>  (113) 
nan

$$$$
CHEMBL1571048
     RDKit          3D

  0  0  0  0  0  0  0  0  0  0999 V3000
M  V30 BEGIN CTAB
M  V30 COUNTS 34 36 0 0 0
M  V30 BEGIN ATOM
M  V30 1 C -1.915554 -3.990325 1.938202 0
M  V30 2 C -1.241048 -2.757333 1.445995 0
M  V30 3 C -0.515106 -1.961905 2.332779 0
M  V30 4 O -0.426617 -2.329126 3.677764 0
M  V30 5 N 0.132256 -0.824347 1.982484 0
M  V30 6 C 0.050244 -0.464986 0.685270 0
M  V30 7 C -0.650994 -1.193172 -0.278389 0
M  V30 8 C -0.517770 -0.532527 -1.487057 0
M  V30 9 C -1.108606 -0.967674 -2.774386 0
M  V30 10 N 0.249942 0.558582 -1.215165 0
M  V30 11 N 0.586768 0.602476 0.062763 0
M  V30 12 C 1.386162 1.613080 0.680373 0
M  V30 13 C 2.641114 1.295580 1.182325 0
M  V30 14 C 3.412913 2.273040 1.779045 0
M  V30 15 C 2.891561 3.556393 1.853311 0
M  V30 16 C 1.644668 3.923922 1.367370 0
M  V30 17 C 0.901523 2.903489 0.773336 0
M  V30 18 C -1.299407 -2.352704 0.126113 0
M  V30 19 C -2.062225 -3.166371 -0.864812 0
M  V30 20 H -2.932559 -3.713835 2.306282 0
M  V30 21 H -1.929850 -4.812108 1.209360 0
M  V30 22 H -1.306358 -4.338079 2.814805 0
M  V30 23 H 0.480506 -2.413401 4.140440 0
M  V30 24 H -2.157345 -0.654641 -2.920653 0
M  V30 25 H -0.881218 -2.010957 -3.012128 0
M  V30 26 H -0.545570 -0.379556 -3.559326 0
M  V30 27 H 2.967075 0.276473 1.082661 0
M  V30 28 H 4.379691 2.049433 2.170890 0
M  V30 29 H 3.512349 4.329195 2.329984 0
M  V30 30 H 1.278811 4.936316 1.446964 0
M  V30 31 H -0.067869 3.207903 0.400133 0
M  V30 32 H -1.440238 -3.900418 -1.397417 0
M  V30 33 H -2.689160 -2.530783 -1.521483 0
M  V30 34 H -2.829697 -3.775118 -0.299589 0
M  V30 END ATOM
M  V30 BEGIN BOND
M  V30 1 1 1 2
M  V30 2 2 2 3
M  V30 3 1 3 4
M  V30 4 1 3 5
M  V30 5 2 5 6
M  V30 6 1 6 7
M  V30 7 1 7 8
M  V30 8 1 8 9
M  V30 9 2 8 10
M  V30 10 1 10 11
M  V30 11 1 11 12
M  V30 12 2 12 13
M  V30 13 1 13 14
M  V30 14 2 14 15
M  V30 15 1 15 16
M  V30 16 2 16 17
M  V30 17 2 7 18
M  V30 18 1 18 19
M  V30 19 1 18 2
M  V30 20 1 11 6
M  V30 21 1 17 12
M  V30 22 1 1 20
M  V30 23 1 1 21
M  V30 24 1 1 22
M  V30 25 1 4 23
M  V30 26 1 9 24
M  V30 27 1 9 25
M  V30 28 1 9 26
M  V30 29 1 13 27
M  V30 30 1 14 28
M  V30 31 1 15 29
M  V30 32 1 16 30
M  V30 33 1 17 31
M  V30 34 1 19 32
M  V30 35 1 19 33
M  V30 36 1 19 34
M  V30 END BOND
M  V30 END CTAB
M  END
>  <Dataset>  (114) 
ChEMBL_Kinases

>  <Ligand_Instance>  (114) 
nan

>  <PDB_ID>  (114) 
nan

>  <Standardized_SMILES>  (114) 
Cc1c(O)nc2c(c(C)nn2-c2ccccc2)c1C

>  <Name>  (114) 
nan

>  <Pocket>  (114) 
nan

>  <ATP_Site>  (114) 
nan

>  <Peripheral>  (114) 
nan

>  <Num_H_Atoms_ProtBoundConf>  (114) 
nan

>  <Num_Resolved_Atoms>  (114) 
nan

>  <Num_Not_Resolved_Atoms>  (114) 
nan

$$$$
CHEMBL157026
     RDKit          3D

  0  0  0  0  0  0  0  0  0  0999 V3000
M  V30 BEGIN CTAB
M  V30 COUNTS 6 5 0 0 0
M  V30 BEGIN ATOM
M  V30 1 Cl 0.328446 -2.177227 4.531956 0
M  V30 2 C 1.252468 -1.478814 3.219628 0
M  V30 3 C 1.767115 -2.148226 2.190464 0
M  V30 4 Cl 2.693135 -1.514341 0.856688 0
M  V30 5 H 1.457098 -0.396239 3.190470 0
M  V30 6 H 1.592477 -3.214155 2.175326 0
M  V30 END ATOM
M  V30 BEGIN BOND
M  V30 1 1 1 2
M  V30 2 2 2 3
M  V30 3 1 3 4
M  V30 4 1 2 5
M  V30 5 1 3 6
M  V30 END BOND
M  V30 END CTAB
M  END
>  <Dataset>  (115) 
ChEMBL_Kinases

>  <Ligand_Instance>  (115) 
nan

>  <PDB_ID>  (115) 
nan

>  <Standardized_SMILES>  (115) 
Cl/C=C/Cl

>  <Name>  (115) 
nan

>  <Pocket>  (115) 
nan

>  <ATP_Site>  (115) 
nan

>  <Peripheral>  (115) 
nan

>  <Num_H_Atoms_ProtBoundConf>  (115) 
nan

>  <Num_Resolved_Atoms>  (115) 
nan

>  <Num_Not_Resolved_Atoms>  (115) 
nan

$$$$
CHEMBL1576652
     RDKit          3D

  0  0  0  0  0  0  0  0  0  0999 V3000
M  V30 BEGIN CTAB
M  V30 COUNTS 49 51 0 0 0
M  V30 BEGIN ATOM
M  V30 1 O -0.174309 -2.800488 4.331844 0
M  V30 2 C 0.272982 -1.915148 3.550198 0
M  V30 3 C 1.680601 -2.176133 3.259868 0
M  V30 4 S 2.478317 -1.057950 2.193076 0 CHG=1 VAL=3
M  V30 5 O 2.511777 0.512632 2.713497 0 CHG=-1 VAL=1
M  V30 6 C 2.167940 -1.279627 0.490290 0
M  V30 7 C 2.926258 -0.242364 -0.268910 0
M  V30 8 O 3.445154 0.314503 0.737260 0
M  V30 9 N 2.920732 -0.107420 -1.685132 0
M  V30 10 C 3.771508 1.005751 -2.031724 0
M  V30 11 C 3.296793 2.297211 -2.137883 0
M  V30 12 C 4.133656 3.351775 -2.472294 0
M  V30 13 C 5.458946 3.036652 -2.691075 0
M  V30 14 Cl 6.470754 4.421774 -3.112628 0
M  V30 15 C 6.003076 1.771967 -2.603154 0
M  V30 16 C 5.125178 0.742648 -2.264399 0
M  V30 17 N -0.586365 -0.893137 3.113240 0
M  V30 18 C -1.946014 -0.725246 3.453735 0
M  V30 19 C -2.935407 -1.761301 3.125464 0
M  V30 20 O -4.208191 -1.362054 3.585733 0
M  V30 21 C -4.825423 -0.406764 2.842069 0
M  V30 22 C -5.466369 -1.098022 1.628832 0
M  V30 23 C -4.272472 -1.751810 0.982002 0
M  V30 24 C -4.466145 -2.011687 -0.357931 0
M  V30 25 C -3.458603 -2.610521 -1.079216 0
M  V30 26 C -2.294093 -2.933878 -0.458619 0
M  V30 27 C -2.136283 -2.658784 0.882949 0
M  V30 28 C -3.094706 -2.061553 1.677235 0
M  V30 29 H 1.792374 -3.190858 2.859267 0
M  V30 30 H 2.239592 -2.173841 4.226199 0
M  V30 31 H 1.096284 -1.303858 0.223445 0
M  V30 32 H 2.589040 -2.261650 0.188489 0
M  V30 33 H 2.321580 -0.818800 -2.165008 0
M  V30 34 H 2.247642 2.398077 -1.941458 0
M  V30 35 H 3.733827 4.341658 -2.546423 0
M  V30 36 H 7.056268 1.611971 -2.791160 0
M  V30 37 H 5.526547 -0.269421 -2.187149 0
M  V30 38 H -0.097775 -0.211362 2.462462 0
M  V30 39 H -2.312956 0.267201 3.083245 0
M  V30 40 H -1.977424 -0.576794 4.576948 0
M  V30 41 H -2.806628 -2.719196 3.705164 0
M  V30 42 H -5.673363 -0.014955 3.442133 0
M  V30 43 H -4.234103 0.435057 2.492145 0
M  V30 44 H -5.939111 -0.362547 0.969368 0
M  V30 45 H -6.118769 -1.913212 1.980663 0
M  V30 46 H -5.359626 -1.779889 -0.898120 0
M  V30 47 H -3.581286 -2.825921 -2.128412 0
M  V30 48 H -1.501391 -3.404429 -1.023538 0
M  V30 49 H -1.207112 -2.935711 1.313014 0
M  V30 END ATOM
M  V30 BEGIN BOND
M  V30 1 2 1 2
M  V30 2 1 2 3
M  V30 3 1 3 4
M  V30 4 1 4 5
M  V30 5 1 4 6
M  V30 6 1 6 7
M  V30 7 2 7 8
M  V30 8 1 7 9
M  V30 9 1 9 10
M  V30 10 2 10 11
M  V30 11 1 11 12
M  V30 12 2 12 13
M  V30 13 1 13 14
M  V30 14 1 13 15
M  V30 15 2 15 16
M  V30 16 1 2 17
M  V30 17 1 17 18
M  V30 18 1 18 19
M  V30 19 1 19 20
M  V30 20 1 20 21
M  V30 21 1 21 22
M  V30 22 1 22 23
M  V30 23 2 23 24
M  V30 24 1 24 25
M  V30 25 2 25 26
M  V30 26 1 26 27
M  V30 27 2 27 28
M  V30 28 1 16 10
M  V30 29 1 28 19
M  V30 30 1 28 23
M  V30 31 1 3 29
M  V30 32 1 3 30
M  V30 33 1 6 31
M  V30 34 1 6 32
M  V30 35 1 9 33
M  V30 36 1 11 34
M  V30 37 1 12 35
M  V30 38 1 15 36
M  V30 39 1 16 37
M  V30 40 1 17 38
M  V30 41 1 18 39
M  V30 42 1 18 40
M  V30 43 1 19 41
M  V30 44 1 21 42
M  V30 45 1 21 43
M  V30 46 1 22 44
M  V30 47 1 22 45
M  V30 48 1 24 46
M  V30 49 1 25 47
M  V30 50 1 26 48
M  V30 51 1 27 49
M  V30 END BOND
M  V30 END CTAB
M  END
>  <Dataset>  (116) 
ChEMBL_Kinases

>  <Ligand_Instance>  (116) 
nan

>  <PDB_ID>  (116) 
nan

>  <Standardized_SMILES>  (116) 
O=C(C[S+]([O-])CC(=O)Nc1ccc(Cl)cc1)NCC1OCCc2ccccc21

>  <Name>  (116) 
nan

>  <Pocket>  (116) 
nan

>  <ATP_Site>  (116) 
nan

>  <Peripheral>  (116) 
nan

>  <Num_H_Atoms_ProtBoundConf>  (116) 
nan

>  <Num_Resolved_Atoms>  (116) 
nan

>  <Num_Not_Resolved_Atoms>  (116) 
nan

$$$$
CHEMBL1576495
     RDKit          3D

  0  0  0  0  0  0  0  0  0  0999 V3000
M  V30 BEGIN CTAB
M  V30 COUNTS 61 65 0 0 0
M  V30 BEGIN ATOM
M  V30 1 C 1.914283 0.369241 5.767979 0
M  V30 2 O 2.260707 -1.002289 5.661327 0
M  V30 3 C 2.499593 -1.510156 4.401982 0
M  V30 4 C 2.835383 -2.841756 4.304461 0
M  V30 5 C 3.079216 -3.380522 3.074181 0
M  V30 6 C 2.988649 -2.594656 1.944986 0
M  V30 7 C 2.654238 -1.244763 1.977776 0
M  V30 8 N 2.562143 -0.438199 0.809228 0
M  V30 9 C 2.204539 0.949810 0.998139 0
M  V30 10 C 2.446500 1.774833 -0.244411 0
M  V30 11 N 2.104683 1.114027 -1.447335 0
M  V30 12 C 0.949274 1.559901 -2.136833 0
M  V30 13 C -0.300804 1.464168 -1.369173 0
M  V30 14 N -0.754811 2.467968 -0.586830 0
M  V30 15 C -1.906702 2.337767 0.100198 0
M  V30 16 N -2.360996 3.411158 0.916465 0
M  V30 17 N -2.574595 1.185987 -0.023265 0
M  V30 18 C -2.190629 0.138850 -0.781017 0
M  V30 19 N -3.032857 -1.004554 -0.774473 0
M  V30 20 C -4.172058 -1.034645 0.136106 0
M  V30 21 C -4.103734 -2.292320 0.925254 0
M  V30 22 C -3.766753 -3.532997 0.192833 0
M  V30 23 C -3.172474 -3.354664 -1.130721 0
M  V30 24 C -2.958796 -4.449202 -1.941697 0
M  V30 25 C -2.389138 -4.257487 -3.206476 0
M  V30 26 C -2.027490 -2.990305 -3.679025 0
M  V30 27 C -2.236920 -1.872287 -2.871216 0
M  V30 28 C -2.803859 -2.122438 -1.629344 0
M  V30 29 N -1.037659 0.345023 -1.431911 0
M  V30 30 C 2.536335 -0.206130 -1.639853 0
M  V30 31 C 2.826485 -1.046829 -0.461825 0
M  V30 32 C 2.420775 -0.763572 3.249592 0
M  V30 33 H 1.668826 0.608543 6.827839 0
M  V30 34 H 1.017654 0.512374 5.127569 0
M  V30 35 H 2.787850 0.963183 5.443552 0
M  V30 36 H 2.916441 -3.488177 5.160901 0
M  V30 37 H 3.349262 -4.439679 2.963998 0
M  V30 38 H 3.189858 -3.064920 0.999331 0
M  V30 39 H 2.883235 1.356168 1.792484 0
M  V30 40 H 1.169712 1.069630 1.366765 0
M  V30 41 H 3.494961 2.173850 -0.294796 0
M  V30 42 H 1.809440 2.678572 -0.145025 0
M  V30 43 H 1.111555 2.646880 -2.377480 0
M  V30 44 H 0.927140 1.059048 -3.125260 0
M  V30 45 H -2.936051 4.264610 0.777094 0
M  V30 46 H -1.917560 3.091397 1.809191 0
M  V30 47 H -5.079419 -0.906870 -0.485988 0
M  V30 48 H -4.118811 -0.179570 0.838753 0
M  V30 49 H -5.119645 -2.421665 1.400915 0
M  V30 50 H -3.430964 -2.096797 1.805413 0
M  V30 51 H -3.083508 -4.131896 0.859869 0
M  V30 52 H -4.667089 -4.198409 0.088602 0
M  V30 53 H -3.202007 -5.467931 -1.672021 0
M  V30 54 H -2.224967 -5.139444 -3.841307 0
M  V30 55 H -1.588888 -2.867342 -4.659962 0
M  V30 56 H -1.981976 -0.867052 -3.176441 0
M  V30 57 H 3.435252 -0.176703 -2.323264 0
M  V30 58 H 1.768277 -0.732545 -2.268287 0
M  V30 59 H 3.896026 -1.344577 -0.448126 0
M  V30 60 H 2.250446 -2.018257 -0.478620 0
M  V30 61 H 2.154609 0.277999 3.364627 0
M  V30 END ATOM
M  V30 BEGIN BOND
M  V30 1 1 1 2
M  V30 2 1 2 3
M  V30 3 2 3 4
M  V30 4 1 4 5
M  V30 5 2 5 6
M  V30 6 1 6 7
M  V30 7 1 7 8
M  V30 8 1 8 9
M  V30 9 1 9 10
M  V30 10 1 10 11
M  V30 11 1 11 12
M  V30 12 1 12 13
M  V30 13 2 13 14
M  V30 14 1 14 15
M  V30 15 1 15 16
M  V30 16 2 15 17
M  V30 17 1 17 18
M  V30 18 1 18 19
M  V30 19 1 19 20
M  V30 20 1 20 21
M  V30 21 1 21 22
M  V30 22 1 22 23
M  V30 23 2 23 24
M  V30 24 1 24 25
M  V30 25 2 25 26
M  V30 26 1 26 27
M  V30 27 2 27 28
M  V30 28 2 18 29
M  V30 29 1 11 30
M  V30 30 1 30 31
M  V30 31 2 7 32
M  V30 32 1 32 3
M  V30 33 1 31 8
M  V30 34 1 29 13
M  V30 35 1 28 19
M  V30 36 1 28 23
M  V30 37 1 1 33
M  V30 38 1 1 34
M  V30 39 1 1 35
M  V30 40 1 4 36
M  V30 41 1 5 37
M  V30 42 1 6 38
M  V30 43 1 9 39
M  V30 44 1 9 40
M  V30 45 1 10 41
M  V30 46 1 10 42
M  V30 47 1 12 43
M  V30 48 1 12 44
M  V30 49 1 16 45
M  V30 50 1 16 46
M  V30 51 1 20 47
M  V30 52 1 20 48
M  V30 53 1 21 49
M  V30 54 1 21 50
M  V30 55 1 22 51
M  V30 56 1 22 52
M  V30 57 1 24 53
M  V30 58 1 25 54
M  V30 59 1 26 55
M  V30 60 1 27 56
M  V30 61 1 30 57
M  V30 62 1 30 58
M  V30 63 1 31 59
M  V30 64 1 31 60
M  V30 65 1 32 61
M  V30 END BOND
M  V30 END CTAB
M  END
>  <Dataset>  (117) 
ChEMBL_Kinases

>  <Ligand_Instance>  (117) 
nan

>  <PDB_ID>  (117) 
nan

>  <Standardized_SMILES>  (117) 
COc1cccc(N2CCN(Cc3nc(N)nc(N4CCCc5ccccc54)n3)CC2)c1

>  <Name>  (117) 
nan

>  <Pocket>  (117) 
nan

>  <ATP_Site>  (117) 
nan

>  <Peripheral>  (117) 
nan

>  <Num_H_Atoms_ProtBoundConf>  (117) 
nan

>  <Num_Resolved_Atoms>  (117) 
nan

>  <Num_Not_Resolved_Atoms>  (117) 
nan

$$$$
CHEMBL1576363
     RDKit          3D

  0  0  0  0  0  0  0  0  0  0999 V3000
M  V30 BEGIN CTAB
M  V30 COUNTS 48 51 0 0 0
M  V30 BEGIN ATOM
M  V30 1 C -1.806204 -1.442684 5.797280 0
M  V30 2 O -2.029906 -1.345941 4.423469 0
M  V30 3 C -1.161595 -1.743347 3.426313 0
M  V30 4 C 0.074700 -2.303594 3.613458 0
M  V30 5 C 0.896609 -2.680128 2.559309 0
M  V30 6 C 0.504488 -2.506762 1.257101 0
M  V30 7 C 1.320750 -2.883462 0.098883 0
M  V30 8 C 2.237290 -1.827740 -0.419428 0
M  V30 9 N 1.528967 -0.641492 -0.846535 0
M  V30 10 C 1.258252 0.409576 -0.052626 0
M  V30 11 C 1.699513 0.391963 1.337123 0
M  V30 12 C 0.862839 0.903037 2.336882 0
M  V30 13 C 1.496680 0.778821 3.576813 0
M  V30 14 C 2.701862 0.188600 3.246189 0
M  V30 15 O 2.785095 -0.019315 1.953712 0
M  V30 16 N 0.587342 1.479693 -0.528715 0
M  V30 17 C 0.151315 1.572781 -1.797520 0
M  V30 18 C -0.538345 2.678498 -2.278265 0
M  V30 19 C -0.955976 2.703875 -3.595406 0
M  V30 20 C -0.702267 1.640784 -4.463977 0
M  V30 21 C -0.014922 0.551161 -3.965189 0
M  V30 22 C 0.403145 0.521269 -2.653753 0
M  V30 23 C 1.090736 -0.557223 -2.136702 0
M  V30 24 O 1.305383 -1.499611 -2.940091 0
M  V30 25 C -0.760403 -1.933490 1.080642 0
M  V30 26 C -1.590060 -1.553404 2.129707 0
M  V30 27 O -2.830721 -0.991275 1.862264 0
M  V30 28 C -3.241875 -0.809502 0.521187 0
M  V30 29 H -1.487532 -2.451641 6.114160 0
M  V30 30 H -1.127360 -0.648326 6.169692 0
M  V30 31 H -2.795410 -1.248430 6.305828 0
M  V30 32 H 0.363608 -2.430961 4.656028 0
M  V30 33 H 1.870658 -3.121305 2.776588 0
M  V30 34 H 0.589684 -3.111358 -0.732139 0
M  V30 35 H 1.862991 -3.843615 0.247317 0
M  V30 36 H 2.727657 -2.258816 -1.334105 0
M  V30 37 H 3.074630 -1.594081 0.261780 0
M  V30 38 H -0.122015 1.336156 2.234074 0
M  V30 39 H 1.184236 1.051090 4.568195 0
M  V30 40 H 3.529789 -0.100202 3.904964 0
M  V30 41 H -0.743065 3.514806 -1.611927 0
M  V30 42 H -1.504375 3.565294 -4.005913 0
M  V30 43 H -1.022627 1.645934 -5.497820 0
M  V30 44 H 0.202424 -0.288563 -4.595773 0
M  V30 45 H -1.077098 -1.793477 0.042648 0
M  V30 46 H -3.118793 -1.810526 0.016761 0
M  V30 47 H -2.608159 -0.096569 -0.034322 0
M  V30 48 H -4.327911 -0.563708 0.466564 0
M  V30 END ATOM
M  V30 BEGIN BOND
M  V30 1 1 1 2
M  V30 2 1 2 3
M  V30 3 2 3 4
M  V30 4 1 4 5
M  V30 5 2 5 6
M  V30 6 1 6 7
M  V30 7 1 7 8
M  V30 8 1 8 9
M  V30 9 1 9 10
M  V30 10 1 10 11
M  V30 11 2 11 12
M  V30 12 1 12 13
M  V30 13 2 13 14
M  V30 14 1 14 15
M  V30 15 2 10 16
M  V30 16 1 16 17
M  V30 17 2 17 18
M  V30 18 1 18 19
M  V30 19 2 19 20
M  V30 20 1 20 21
M  V30 21 2 21 22
M  V30 22 1 22 23
M  V30 23 2 23 24
M  V30 24 1 6 25
M  V30 25 2 25 26
M  V30 26 1 26 27
M  V30 27 1 27 28
M  V30 28 1 26 3
M  V30 29 1 23 9
M  V30 30 1 15 11
M  V30 31 1 22 17
M  V30 32 1 1 29
M  V30 33 1 1 30
M  V30 34 1 1 31
M  V30 35 1 4 32
M  V30 36 1 5 33
M  V30 37 1 7 34
M  V30 38 1 7 35
M  V30 39 1 8 36
M  V30 40 1 8 37
M  V30 41 1 12 38
M  V30 42 1 13 39
M  V30 43 1 14 40
M  V30 44 1 18 41
M  V30 45 1 19 42
M  V30 46 1 20 43
M  V30 47 1 21 44
M  V30 48 1 25 45
M  V30 49 1 28 46
M  V30 50 1 28 47
M  V30 51 1 28 48
M  V30 END BOND
M  V30 END CTAB
M  END
>  <Dataset>  (118) 
ChEMBL_Kinases

>  <Ligand_Instance>  (118) 
nan

>  <PDB_ID>  (118) 
nan

>  <Standardized_SMILES>  (118) 
COc1ccc(CCn2c(-c3ccco3)nc3ccccc3c2=O)cc1OC

>  <Name>  (118) 
nan

>  <Pocket>  (118) 
nan

>  <ATP_Site>  (118) 
nan

>  <Peripheral>  (118) 
nan

>  <Num_H_Atoms_ProtBoundConf>  (118) 
nan

>  <Num_Resolved_Atoms>  (118) 
nan

>  <Num_Not_Resolved_Atoms>  (118) 
nan

$$$$
CHEMBL1575910
     RDKit          3D

  0  0  0  0  0  0  0  0  0  0999 V3000
M  V30 BEGIN CTAB
M  V30 COUNTS 51 53 0 0 0
M  V30 BEGIN ATOM
M  V30 1 C 4.520935 -5.286278 3.630734 0
M  V30 2 O 3.364657 -5.418717 2.837442 0
M  V30 3 C 2.958378 -4.543972 1.857209 0
M  V30 4 C 3.593102 -3.384146 1.464563 0
M  V30 5 C 3.083384 -2.589225 0.465295 0
M  V30 6 C 1.923045 -2.885218 -0.206152 0
M  V30 7 N 1.426517 -2.042070 -1.228667 0
M  V30 8 C 2.023300 -0.783313 -1.654804 0
M  V30 9 C 1.022098 0.348235 -1.537067 0
M  V30 10 N -0.235025 -0.113912 -0.985262 0
M  V30 11 C -0.915465 0.526932 0.077534 0
M  V30 12 O -0.094738 1.447859 0.247386 0
M  V30 13 C -1.620554 1.191974 1.179672 0
M  V30 14 O -0.845702 2.317205 1.558574 0
M  V30 15 C -0.250695 2.430450 2.799854 0
M  V30 16 C 0.548887 3.623226 3.150717 0
M  V30 17 O -0.353210 1.547293 3.679119 0
M  V30 18 C -3.020757 1.543186 0.893520 0
M  V30 19 C -4.084768 0.797417 1.367917 0
M  V30 20 C -5.419297 1.102425 1.115315 0
M  V30 21 C -5.666135 2.209278 0.350789 0
M  V30 22 C -4.630132 2.979005 -0.140908 0
M  V30 23 C -3.312577 2.651755 0.126330 0
M  V30 24 C -0.803728 -1.300665 -1.565159 0
M  V30 25 C 0.242912 -2.277196 -2.031368 0
M  V30 26 C 1.289234 -4.035277 0.179813 0
M  V30 27 C 1.785146 -4.850049 1.183492 0
M  V30 28 H 5.362659 -5.930602 3.274206 0
M  V30 29 H 4.832067 -4.228894 3.696799 0
M  V30 30 H 4.297029 -5.604902 4.685028 0
M  V30 31 H 4.505732 -3.156443 1.996351 0
M  V30 32 H 3.686831 -1.717833 0.268075 0
M  V30 33 H 2.961075 -0.530197 -1.168051 0
M  V30 34 H 2.251312 -0.901059 -2.736718 0
M  V30 35 H 0.792356 0.757095 -2.539652 0
M  V30 36 H 1.413100 1.187810 -0.925888 0
M  V30 37 H -1.605755 0.514773 2.071906 0
M  V30 38 H 0.976575 4.026728 2.194191 0
M  V30 39 H 1.402394 3.304901 3.790921 0
M  V30 40 H -0.054605 4.411008 3.626125 0
M  V30 41 H -3.865436 -0.082219 1.976299 0
M  V30 42 H -6.184562 0.445263 1.539076 0
M  V30 43 H -6.718528 2.432811 0.163218 0
M  V30 44 H -4.860107 3.852124 -0.745118 0
M  V30 45 H -2.501974 3.267378 -0.267532 0
M  V30 46 H -1.397984 -1.808168 -0.762599 0
M  V30 47 H -1.483694 -1.002584 -2.404558 0
M  V30 48 H -0.159632 -3.302909 -1.885053 0
M  V30 49 H 0.462914 -2.135180 -3.118278 0
M  V30 50 H 0.369440 -4.366600 -0.277117 0
M  V30 51 H 1.237681 -5.765207 1.457142 0
M  V30 END ATOM
M  V30 BEGIN BOND
M  V30 1 1 1 2
M  V30 2 1 2 3
M  V30 3 2 3 4
M  V30 4 1 4 5
M  V30 5 2 5 6
M  V30 6 1 6 7
M  V30 7 1 7 8
M  V30 8 1 8 9
M  V30 9 1 9 10
M  V30 10 1 10 11
M  V30 11 2 11 12
M  V30 12 1 11 13
M  V30 13 1 13 14
M  V30 14 1 14 15
M  V30 15 1 15 16
M  V30 16 2 15 17
M  V30 17 1 13 18
M  V30 18 2 18 19
M  V30 19 1 19 20
M  V30 20 2 20 21
M  V30 21 1 21 22
M  V30 22 2 22 23
M  V30 23 1 10 24
M  V30 24 1 24 25
M  V30 25 1 6 26
M  V30 26 2 26 27
M  V30 27 1 27 3
M  V30 28 1 25 7
M  V30 29 1 23 18
M  V30 30 1 1 28
M  V30 31 1 1 29
M  V30 32 1 1 30
M  V30 33 1 4 31
M  V30 34 1 5 32
M  V30 35 1 8 33
M  V30 36 1 8 34
M  V30 37 1 9 35
M  V30 38 1 9 36
M  V30 39 1 13 37
M  V30 40 1 16 38
M  V30 41 1 16 39
M  V30 42 1 16 40
M  V30 43 1 19 41
M  V30 44 1 20 42
M  V30 45 1 21 43
M  V30 46 1 22 44
M  V30 47 1 23 45
M  V30 48 1 24 46
M  V30 49 1 24 47
M  V30 50 1 25 48
M  V30 51 1 25 49
M  V30 52 1 26 50
M  V30 53 1 27 51
M  V30 END BOND
M  V30 END CTAB
M  END
>  <Dataset>  (119) 
ChEMBL_Kinases

>  <Ligand_Instance>  (119) 
nan

>  <PDB_ID>  (119) 
nan

>  <Standardized_SMILES>  (119) 
COc1ccc(N2CCN(C(=O)C(OC(C)=O)c3ccccc3)CC2)cc1

>  <Name>  (119) 
nan

>  <Pocket>  (119) 
nan

>  <ATP_Site>  (119) 
nan

>  <Peripheral>  (119) 
nan

>  <Num_H_Atoms_ProtBoundConf>  (119) 
nan

>  <Num_Resolved_Atoms>  (119) 
nan

>  <Num_Not_Resolved_Atoms>  (119) 
nan

$$$$
CHEMBL1575855
     RDKit          3D

  0  0  0  0  0  0  0  0  0  0999 V3000
M  V30 BEGIN CTAB
M  V30 COUNTS 35 36 0 0 0
M  V30 BEGIN ATOM
M  V30 1 C -1.138974 -3.562877 2.917442 0
M  V30 2 O -0.518600 -2.679244 2.033918 0
M  V30 3 C 0.781562 -2.743938 1.596184 0
M  V30 4 C 1.588825 -3.758459 2.036060 0
M  V30 5 C 2.871245 -3.807065 1.583193 0
M  V30 6 C 3.514765 -2.952558 0.708887 0
M  V30 7 C 2.623565 -1.947095 0.310044 0
M  V30 8 C 1.281079 -1.791181 0.708042 0
M  V30 9 N 0.565839 -0.736428 0.166159 0
M  V30 10 C -0.098706 0.445502 -0.000083 0
M  V30 11 C -0.091992 1.133509 -1.190246 0
M  V30 12 N 0.660605 0.520166 -2.244158 0 CHG=1 VAL=4
M  V30 13 O 0.661085 0.466064 -3.472349 0
M  V30 14 O 1.706144 -0.295333 -2.594164 0 CHG=-1 VAL=1
M  V30 15 C -0.696430 2.311709 -1.519531 0
M  V30 16 C -1.402054 2.828703 -0.434418 0
M  V30 17 C -2.095959 4.117992 -0.689652 0
M  V30 18 C -1.472442 2.224829 0.792890 0
M  V30 19 C -0.830041 1.035872 1.040053 0
M  V30 20 N -1.032154 0.597779 2.374120 0 CHG=1 VAL=4
M  V30 21 O 0.099186 0.105557 2.673012 0
M  V30 22 O -2.218782 0.783918 3.005111 0 CHG=-1 VAL=1
M  V30 23 H -2.236812 -3.552093 2.642203 0
M  V30 24 H -0.763984 -4.599110 2.824123 0
M  V30 25 H -1.102669 -3.216242 3.987146 0
M  V30 26 H 1.262019 -4.538729 2.737121 0
M  V30 27 H 3.494544 -4.621597 1.944885 0
M  V30 28 H 4.507377 -2.984011 0.354804 0
M  V30 29 H 3.039709 -1.206066 -0.390680 0
M  V30 30 H 0.440924 -1.270127 -0.760691 0
M  V30 31 H -0.632104 2.769127 -2.483865 0
M  V30 32 H -1.768031 4.799121 0.131534 0
M  V30 33 H -1.843300 4.537060 -1.676620 0
M  V30 34 H -3.187294 3.936547 -0.609712 0
M  V30 35 H -2.073982 2.777240 1.528525 0
M  V30 END ATOM
M  V30 BEGIN BOND
M  V30 1 1 1 2
M  V30 2 1 2 3
M  V30 3 2 3 4
M  V30 4 1 4 5
M  V30 5 2 5 6
M  V30 6 1 6 7
M  V30 7 2 7 8
M  V30 8 1 8 9
M  V30 9 1 9 10
M  V30 10 2 10 11
M  V30 11 1 11 12
M  V30 12 2 12 13
M  V30 13 1 12 14
M  V30 14 1 11 15
M  V30 15 2 15 16
M  V30 16 1 16 17
M  V30 17 1 16 18
M  V30 18 2 18 19
M  V30 19 1 19 20
M  V30 20 2 20 21
M  V30 21 1 20 22
M  V30 22 1 8 3
M  V30 23 1 19 10
M  V30 24 1 1 23
M  V30 25 1 1 24
M  V30 26 1 1 25
M  V30 27 1 4 26
M  V30 28 1 5 27
M  V30 29 1 6 28
M  V30 30 1 7 29
M  V30 31 1 9 30
M  V30 32 1 15 31
M  V30 33 1 17 32
M  V30 34 1 17 33
M  V30 35 1 17 34
M  V30 36 1 18 35
M  V30 END BOND
M  V30 END CTAB
M  END
>  <Dataset>  (120) 
ChEMBL_Kinases

>  <Ligand_Instance>  (120) 
nan

>  <PDB_ID>  (120) 
nan

>  <Standardized_SMILES>  (120) 
COc1ccccc1Nc1c([N+](=O)[O-])cc(C)cc1[N+](=O)[O-]

>  <Name>  (120) 
nan

>  <Pocket>  (120) 
nan

>  <ATP_Site>  (120) 
nan

>  <Peripheral>  (120) 
nan

>  <Num_H_Atoms_ProtBoundConf>  (120) 
nan

>  <Num_Resolved_Atoms>  (120) 
nan

>  <Num_Not_Resolved_Atoms>  (120) 
nan

$$$$
CHEMBL1575839
     RDKit          3D

  0  0  0  0  0  0  0  0  0  0999 V3000
M  V30 BEGIN CTAB
M  V30 COUNTS 42 44 0 0 0
M  V30 BEGIN ATOM
M  V30 1 C -0.911066 -4.460988 -1.093878 0
M  V30 2 C -0.255180 -3.557444 -2.123790 0
M  V30 3 O -0.404693 -2.213133 -1.856908 0
M  V30 4 C -0.044711 -1.444933 -0.810129 0
M  V30 5 N -0.349688 -0.114915 -0.869513 0
M  V30 6 C -0.048026 0.722419 0.097539 0
M  V30 7 N -0.423685 2.072908 -0.050411 0
M  V30 8 C 0.156832 3.176379 0.731503 0
M  V30 9 C 1.046310 3.949433 -0.218612 0
M  V30 10 O 0.625261 3.818047 -1.513976 0
M  V30 11 C -0.741144 3.748459 -1.704704 0
M  V30 12 C -1.407393 2.625356 -0.946556 0
M  V30 13 N 0.583883 0.287264 1.197292 0
M  V30 14 C 0.914033 -1.040089 1.310190 0
M  V30 15 N 1.541976 -1.621936 2.436584 0
M  V30 16 C 0.511621 -1.693081 3.491635 0
M  V30 17 C 0.881168 -2.903946 4.335520 0
M  V30 18 O 1.365429 -3.946554 3.513048 0
M  V30 19 C 2.646644 -3.642143 3.055568 0
M  V30 20 C 2.804474 -2.147696 2.912032 0
M  V30 21 N 0.596510 -1.925238 0.290800 0
M  V30 22 H -0.230246 -4.531301 -0.220766 0
M  V30 23 H -1.065561 -5.455446 -1.552323 0
M  V30 24 H -1.895063 -4.072313 -0.779468 0
M  V30 25 H -0.689804 -3.858723 -3.111447 0
M  V30 26 H 0.839689 -3.836383 -2.149201 0
M  V30 27 H -0.625712 3.813758 1.172895 0
M  V30 28 H 0.780221 2.715117 1.520719 0
M  V30 29 H 1.023505 5.018527 0.160588 0
M  V30 30 H 2.078517 3.595675 -0.064962 0
M  V30 31 H -0.913484 3.634153 -2.799428 0
M  V30 32 H -1.181971 4.754084 -1.429078 0
M  V30 33 H -1.761884 1.893568 -1.712993 0
M  V30 34 H -2.266324 3.083579 -0.405629 0
M  V30 35 H -0.506808 -1.747823 3.117235 0
M  V30 36 H 0.699149 -0.788700 4.123499 0
M  V30 37 H -0.030119 -3.297981 4.857613 0
M  V30 38 H 1.643662 -2.638419 5.077324 0
M  V30 39 H 2.795967 -4.105545 2.065829 0
M  V30 40 H 3.413426 -4.039957 3.773334 0
M  V30 41 H 3.658579 -1.871518 2.252431 0
M  V30 42 H 3.010595 -1.745069 3.952307 0
M  V30 END ATOM
M  V30 BEGIN BOND
M  V30 1 1 1 2
M  V30 2 1 2 3
M  V30 3 1 3 4
M  V30 4 2 4 5
M  V30 5 1 5 6
M  V30 6 1 6 7
M  V30 7 1 7 8
M  V30 8 1 8 9
M  V30 9 1 9 10
M  V30 10 1 10 11
M  V30 11 1 11 12
M  V30 12 2 6 13
M  V30 13 1 13 14
M  V30 14 1 14 15
M  V30 15 1 15 16
M  V30 16 1 16 17
M  V30 17 1 17 18
M  V30 18 1 18 19
M  V30 19 1 19 20
M  V30 20 2 14 21
M  V30 21 1 21 4
M  V30 22 1 12 7
M  V30 23 1 20 15
M  V30 24 1 1 22
M  V30 25 1 1 23
M  V30 26 1 1 24
M  V30 27 1 2 25
M  V30 28 1 2 26
M  V30 29 1 8 27
M  V30 30 1 8 28
M  V30 31 1 9 29
M  V30 32 1 9 30
M  V30 33 1 11 31
M  V30 34 1 11 32
M  V30 35 1 12 33
M  V30 36 1 12 34
M  V30 37 1 16 35
M  V30 38 1 16 36
M  V30 39 1 17 37
M  V30 40 1 17 38
M  V30 41 1 19 39
M  V30 42 1 19 40
M  V30 43 1 20 41
M  V30 44 1 20 42
M  V30 END BOND
M  V30 END CTAB
M  END
>  <Dataset>  (121) 
ChEMBL_Kinases

>  <Ligand_Instance>  (121) 
nan

>  <PDB_ID>  (121) 
nan

>  <Standardized_SMILES>  (121) 
CCOc1nc(N2CCOCC2)nc(N2CCOCC2)n1

>  <Name>  (121) 
nan

>  <Pocket>  (121) 
nan

>  <ATP_Site>  (121) 
nan

>  <Peripheral>  (121) 
nan

>  <Num_H_Atoms_ProtBoundConf>  (121) 
nan

>  <Num_Resolved_Atoms>  (121) 
nan

>  <Num_Not_Resolved_Atoms>  (121) 
nan

$$$$
CHEMBL1575772
     RDKit          3D

  0  0  0  0  0  0  0  0  0  0999 V3000
M  V30 BEGIN CTAB
M  V30 COUNTS 45 48 0 0 0
M  V30 BEGIN ATOM
M  V30 1 O 0.418860 -2.645445 3.378722 0
M  V30 2 C 1.206677 -1.801196 2.831959 0
M  V30 3 C 0.897230 -0.393171 3.122068 0
M  V30 4 S 1.898811 0.811576 2.289323 0
M  V30 5 C 1.619450 0.945730 0.532470 0
M  V30 6 N 2.237917 0.147233 -0.329754 0
M  V30 7 C 2.119882 0.200217 -1.663468 0
M  V30 8 C 2.788453 -0.652949 -2.464819 0
M  V30 9 C 2.447841 -0.338741 -3.913689 0
M  V30 10 S 1.243739 1.110450 -3.814475 0
M  V30 11 C 1.261560 1.200753 -2.094638 0
M  V30 12 C 0.639978 2.006051 -1.198066 0
M  V30 13 O -0.099322 2.859011 -1.753862 0
M  V30 14 N 0.765523 1.945734 0.160415 0
M  V30 15 C 0.049443 2.912297 0.912454 0
M  V30 16 C -1.319582 2.570143 1.336295 0
M  V30 17 C -2.473066 2.650240 0.592438 0
M  V30 18 C -3.735770 2.343172 1.035612 0
M  V30 19 C -3.915294 1.916845 2.318508 0
M  V30 20 C -2.815330 1.807346 3.133957 0
M  V30 21 C -1.553500 2.128348 2.645347 0
M  V30 22 N 2.230240 -2.366888 2.052069 0
M  V30 23 C 2.462459 -3.771674 1.816025 0
M  V30 24 C 1.335019 -4.461519 1.155191 0
M  V30 25 C 0.238914 -5.138634 1.656204 0
M  V30 26 C -0.490087 -5.580112 0.553695 0
M  V30 27 C 0.219696 -5.136966 -0.562634 0
M  V30 28 O 1.271914 -4.492405 -0.165227 0
M  V30 29 H 1.063658 -0.268947 4.231987 0
M  V30 30 H -0.199302 -0.291642 3.004959 0
M  V30 31 H 3.466052 -1.455346 -2.266106 0
M  V30 32 H 3.026450 -1.083138 -4.709391 0
M  V30 33 H -0.009223 3.859619 0.288432 0
M  V30 34 H 0.670836 3.256329 1.790107 0
M  V30 35 H -2.416965 2.977817 -0.413859 0
M  V30 36 H -4.601185 2.426542 0.401601 0
M  V30 37 H -4.851301 1.648992 2.776934 0
M  V30 38 H -2.888721 1.475236 4.162250 0
M  V30 39 H -0.686738 2.038341 3.302056 0
M  V30 40 H 2.877804 -1.676792 1.617929 0
M  V30 41 H 2.618241 -4.293247 2.790983 0
M  V30 42 H 3.422206 -3.928208 1.265936 0
M  V30 43 H 0.043776 -5.267416 2.707454 0
M  V30 44 H -1.412580 -6.148661 0.710674 0
M  V30 45 H -0.245827 -5.417929 -1.503921 0
M  V30 END ATOM
M  V30 BEGIN BOND
M  V30 1 2 1 2
M  V30 2 1 2 3
M  V30 3 1 3 4
M  V30 4 1 4 5
M  V30 5 2 5 6
M  V30 6 1 6 7
M  V30 7 1 7 8
M  V30 8 2 8 9
M  V30 9 1 9 10
M  V30 10 1 10 11
M  V30 11 1 11 12
M  V30 12 2 12 13
M  V30 13 1 12 14
M  V30 14 1 14 15
M  V30 15 1 15 16
M  V30 16 2 16 17
M  V30 17 1 17 18
M  V30 18 2 18 19
M  V30 19 1 19 20
M  V30 20 2 20 21
M  V30 21 1 2 22
M  V30 22 1 22 23
M  V30 23 1 23 24
M  V30 24 2 24 25
M  V30 25 1 25 26
M  V30 26 2 26 27
M  V30 27 1 27 28
M  V30 28 1 14 5
M  V30 29 1 21 16
M  V30 30 1 28 24
M  V30 31 2 11 7
M  V30 32 1 3 29
M  V30 33 1 3 30
M  V30 34 1 8 31
M  V30 35 1 9 32
M  V30 36 1 15 33
M  V30 37 1 15 34
M  V30 38 1 17 35
M  V30 39 1 18 36
M  V30 40 1 19 37
M  V30 41 1 20 38
M  V30 42 1 21 39
M  V30 43 1 22 40
M  V30 44 1 23 41
M  V30 45 1 23 42
M  V30 46 1 25 43
M  V30 47 1 26 44
M  V30 48 1 27 45
M  V30 END BOND
M  V30 END CTAB
M  END
>  <Dataset>  (122) 
ChEMBL_Kinases

>  <Ligand_Instance>  (122) 
nan

>  <PDB_ID>  (122) 
nan

>  <Standardized_SMILES>  (122) 
O=C(CSc1nc2ccsc2c(=O)n1Cc1ccccc1)NCc1ccco1

>  <Name>  (122) 
nan

>  <Pocket>  (122) 
nan

>  <ATP_Site>  (122) 
nan

>  <Peripheral>  (122) 
nan

>  <Num_H_Atoms_ProtBoundConf>  (122) 
nan

>  <Num_Resolved_Atoms>  (122) 
nan

>  <Num_Not_Resolved_Atoms>  (122) 
nan

$$$$
CHEMBL1575755
     RDKit          3D

  0  0  0  0  0  0  0  0  0  0999 V3000
M  V30 BEGIN CTAB
M  V30 COUNTS 51 54 0 0 0
M  V30 BEGIN ATOM
M  V30 1 C 1.086731 1.916431 2.817601 0
M  V30 2 N 1.208601 0.504304 2.633375 0
M  V30 3 C 2.435010 0.018642 2.420659 0
M  V30 4 C 3.844782 0.362750 2.297256 0
M  V30 5 N 4.129437 1.782136 2.302002 0
M  V30 6 C 4.347886 2.351345 3.556629 0
M  V30 7 O 4.313373 1.781939 4.721466 0
M  V30 8 S 4.710014 4.165112 3.165980 0
M  V30 9 C 4.531083 3.948150 1.433607 0
M  V30 10 C 4.650234 4.848296 0.427492 0
M  V30 11 C 4.473881 4.493224 -0.892355 0
M  V30 12 C 4.173958 3.156654 -1.041850 0
M  V30 13 C 4.045780 2.216665 -0.045357 0
M  V30 14 C 4.230722 2.617321 1.266525 0
M  V30 15 N 2.230334 -1.329796 2.284598 0
M  V30 16 N 0.935836 -1.591893 2.415799 0
M  V30 17 C 0.277426 -0.458948 2.635010 0
M  V30 18 S -1.485823 -0.216010 2.879151 0
M  V30 19 C -2.270933 0.063039 1.241974 0
M  V30 20 C -2.182435 -1.161007 0.405549 0
M  V30 21 O -1.073505 -1.240583 -0.225125 0
M  V30 22 N -3.223333 -2.145138 0.312343 0
M  V30 23 C -2.900855 -3.246213 -0.568042 0
M  V30 24 C -2.893151 -4.517647 0.236848 0
M  V30 25 C -4.165891 -5.326140 0.056502 0
M  V30 26 C -4.494082 -5.657888 -1.357181 0
M  V30 27 C -3.760420 -4.751337 -2.289179 0
M  V30 28 C -3.842703 -3.338498 -1.752545 0
M  V30 29 H 1.490265 2.273612 3.810305 0
M  V30 30 H -0.022013 2.124579 2.927265 0
M  V30 31 H 1.459656 2.546666 2.011989 0
M  V30 32 H 4.295721 -0.080474 1.334293 0
M  V30 33 H 4.497228 -0.108210 3.073915 0
M  V30 34 H 4.890997 5.863960 0.705700 0
M  V30 35 H 4.562889 5.181156 -1.698292 0
M  V30 36 H 4.027259 2.840357 -2.089909 0
M  V30 37 H 3.801449 1.207300 -0.386962 0
M  V30 38 H -1.747780 0.924655 0.791847 0
M  V30 39 H -3.337613 0.341182 1.402333 0
M  V30 40 H -4.098638 -2.012689 0.854690 0
M  V30 41 H -1.884937 -3.143491 -1.002623 0
M  V30 42 H -2.867054 -4.241534 1.308625 0
M  V30 43 H -1.995509 -5.142810 0.023153 0
M  V30 44 H -5.024441 -4.784425 0.533231 0
M  V30 45 H -4.034497 -6.246763 0.677247 0
M  V30 46 H -4.168815 -6.706850 -1.625958 0
M  V30 47 H -5.602800 -5.571621 -1.563095 0
M  V30 48 H -4.183872 -4.842258 -3.310310 0
M  V30 49 H -2.701553 -5.040694 -2.322739 0
M  V30 50 H -4.892324 -3.096083 -1.488520 0
M  V30 51 H -3.547871 -2.657184 -2.580256 0
M  V30 END ATOM
M  V30 BEGIN BOND
M  V30 1 1 1 2
M  V30 2 1 2 3
M  V30 3 1 3 4
M  V30 4 1 4 5
M  V30 5 1 5 6
M  V30 6 2 6 7
M  V30 7 1 6 8
M  V30 8 1 8 9
M  V30 9 2 9 10
M  V30 10 1 10 11
M  V30 11 2 11 12
M  V30 12 1 12 13
M  V30 13 2 13 14
M  V30 14 2 3 15
M  V30 15 1 15 16
M  V30 16 2 16 17
M  V30 17 1 17 18
M  V30 18 1 18 19
M  V30 19 1 19 20
M  V30 20 2 20 21
M  V30 21 1 20 22
M  V30 22 1 22 23
M  V30 23 1 23 24
M  V30 24 1 24 25
M  V30 25 1 25 26
M  V30 26 1 26 27
M  V30 27 1 27 28
M  V30 28 1 17 2
M  V30 29 1 28 23
M  V30 30 1 14 5
M  V30 31 1 14 9
M  V30 32 1 1 29
M  V30 33 1 1 30
M  V30 34 1 1 31
M  V30 35 1 4 32
M  V30 36 1 4 33
M  V30 37 1 10 34
M  V30 38 1 11 35
M  V30 39 1 12 36
M  V30 40 1 13 37
M  V30 41 1 19 38
M  V30 42 1 19 39
M  V30 43 1 22 40
M  V30 44 1 23 41
M  V30 45 1 24 42
M  V30 46 1 24 43
M  V30 47 1 25 44
M  V30 48 1 25 45
M  V30 49 1 26 46
M  V30 50 1 26 47
M  V30 51 1 27 48
M  V30 52 1 27 49
M  V30 53 1 28 50
M  V30 54 1 28 51
M  V30 END BOND
M  V30 END CTAB
M  END
>  <Dataset>  (123) 
ChEMBL_Kinases

>  <Ligand_Instance>  (123) 
nan

>  <PDB_ID>  (123) 
nan

>  <Standardized_SMILES>  (123) 
Cn1c(Cn2c(=O)sc3ccccc32)nnc1SCC(=O)NC1CCCCC1

>  <Name>  (123) 
nan

>  <Pocket>  (123) 
nan

>  <ATP_Site>  (123) 
nan

>  <Peripheral>  (123) 
nan

>  <Num_H_Atoms_ProtBoundConf>  (123) 
nan

>  <Num_Resolved_Atoms>  (123) 
nan

>  <Num_Not_Resolved_Atoms>  (123) 
nan

$$$$
CHEMBL1575538
     RDKit          3D

  0  0  0  0  0  0  0  0  0  0999 V3000
M  V30 BEGIN CTAB
M  V30 COUNTS 44 46 0 0 0
M  V30 BEGIN ATOM
M  V30 1 C -0.425183 -6.236497 0.813482 0
M  V30 2 C -1.166845 -5.185077 1.595662 0
M  V30 3 C -0.748077 -5.171716 3.046266 0
M  V30 4 C -0.981989 -3.811778 1.076240 0
M  V30 5 C 0.286475 -3.319654 1.057258 0
M  V30 6 C 0.479816 -2.030769 0.572522 0
M  V30 7 C -0.535810 -1.199856 0.101484 0
M  V30 8 C -0.245732 0.133742 -0.387516 0
M  V30 9 N 0.580737 0.942663 0.295057 0
M  V30 10 C 0.889229 2.179678 -0.099198 0
M  V30 11 N 1.778739 2.931315 0.717992 0
M  V30 12 C 2.305701 2.328575 1.929072 0
M  V30 13 C 3.605732 3.011452 2.289159 0
M  V30 14 O 3.392757 4.344697 2.525601 0
M  V30 15 C 2.435237 4.951393 1.753136 0
M  V30 16 C 2.198925 4.286449 0.410280 0
M  V30 17 N 0.381839 2.706067 -1.228322 0
M  V30 18 C -0.469472 1.954060 -1.987797 0
M  V30 19 O -1.030772 2.424787 -3.159435 0
M  V30 20 C -0.772853 0.661462 -1.547263 0
M  V30 21 C -1.661570 -0.148497 -2.322852 0
M  V30 22 N -2.378922 -0.814046 -2.975200 0
M  V30 23 C -1.806430 -1.748687 0.142676 0
M  V30 24 C -2.021025 -3.025649 0.619725 0
M  V30 25 H -0.018370 -5.879590 -0.148364 0
M  V30 26 H -1.076002 -7.124623 0.593736 0
M  V30 27 H 0.425347 -6.644875 1.398003 0
M  V30 28 H -2.251316 -5.398118 1.529560 0
M  V30 29 H 0.068345 -4.436362 3.233371 0
M  V30 30 H -0.361399 -6.167819 3.320968 0
M  V30 31 H -1.575422 -4.884672 3.732108 0
M  V30 32 H 1.166859 -3.877435 1.401069 0
M  V30 33 H 1.478740 -1.611546 0.545008 0
M  V30 34 H 1.566475 2.536763 2.741912 0
M  V30 35 H 2.404454 1.246921 1.809325 0
M  V30 36 H 4.308165 2.836262 1.426754 0
M  V30 37 H 4.006138 2.504364 3.196805 0
M  V30 38 H 1.476409 4.966075 2.337581 0
M  V30 39 H 2.757083 5.994844 1.551405 0
M  V30 40 H 3.172738 4.247507 -0.109446 0
M  V30 41 H 1.420811 4.841212 -0.110574 0
M  V30 42 H -2.017156 2.611497 -3.248398 0
M  V30 43 H -2.638836 -1.155750 -0.208410 0
M  V30 44 H -3.005682 -3.439589 0.647144 0
M  V30 END ATOM
M  V30 BEGIN BOND
M  V30 1 1 1 2
M  V30 2 1 2 3
M  V30 3 1 2 4
M  V30 4 2 4 5
M  V30 5 1 5 6
M  V30 6 2 6 7
M  V30 7 1 7 8
M  V30 8 2 8 9
M  V30 9 1 9 10
M  V30 10 1 10 11
M  V30 11 1 11 12
M  V30 12 1 12 13
M  V30 13 1 13 14
M  V30 14 1 14 15
M  V30 15 1 15 16
M  V30 16 2 10 17
M  V30 17 1 17 18
M  V30 18 1 18 19
M  V30 19 2 18 20
M  V30 20 1 20 21
M  V30 21 3 21 22
M  V30 22 1 7 23
M  V30 23 2 23 24
M  V30 24 1 24 4
M  V30 25 1 20 8
M  V30 26 1 16 11
M  V30 27 1 1 25
M  V30 28 1 1 26
M  V30 29 1 1 27
M  V30 30 1 2 28
M  V30 31 1 3 29
M  V30 32 1 3 30
M  V30 33 1 3 31
M  V30 34 1 5 32
M  V30 35 1 6 33
M  V30 36 1 12 34
M  V30 37 1 12 35
M  V30 38 1 13 36
M  V30 39 1 13 37
M  V30 40 1 15 38
M  V30 41 1 15 39
M  V30 42 1 16 40
M  V30 43 1 16 41
M  V30 44 1 19 42
M  V30 45 1 23 43
M  V30 46 1 24 44
M  V30 END BOND
M  V30 END CTAB
M  END
>  <Dataset>  (124) 
ChEMBL_Kinases

>  <Ligand_Instance>  (124) 
nan

>  <PDB_ID>  (124) 
nan

>  <Standardized_SMILES>  (124) 
CC(C)c1ccc(-c2nc(N3CCOCC3)nc(O)c2C#N)cc1

>  <Name>  (124) 
nan

>  <Pocket>  (124) 
nan

>  <ATP_Site>  (124) 
nan

>  <Peripheral>  (124) 
nan

>  <Num_H_Atoms_ProtBoundConf>  (124) 
nan

>  <Num_Resolved_Atoms>  (124) 
nan

>  <Num_Not_Resolved_Atoms>  (124) 
nan

$$$$
CHEMBL1575391
     RDKit          3D

  0  0  0  0  0  0  0  0  0  0999 V3000
M  V30 BEGIN CTAB
M  V30 COUNTS 34 37 0 0 0
M  V30 BEGIN ATOM
M  V30 1 C -1.368865 -4.395432 4.817759 0
M  V30 2 N -0.844155 -3.787509 3.612098 0
M  V30 3 N 0.465986 -3.689963 3.368825 0
M  V30 4 C 0.694996 -3.088270 2.193086 0
M  V30 5 C -0.527710 -2.770829 1.626589 0
M  V30 6 C -1.042054 -2.172034 0.475015 0
M  V30 7 N -0.036029 -1.711204 -0.412926 0
M  V30 8 C 0.516865 -0.448881 -0.762040 0
M  V30 9 C 1.707918 -0.459694 -1.469774 0
M  V30 10 C 2.272139 0.740030 -1.848068 0
M  V30 11 C 1.656448 1.936261 -1.524371 0
M  V30 12 C 2.260573 3.129826 -1.929361 0
M  V30 13 C 1.680199 4.364311 -1.631761 0
M  V30 14 C 0.492183 4.378501 -0.925960 0
M  V30 15 C -0.110387 3.194267 -0.521833 0
M  V30 16 C 0.469653 1.954624 -0.819472 0
M  V30 17 C -0.108572 0.749154 -0.432759 0
M  V30 18 N -2.371473 -2.058732 0.301316 0
M  V30 19 C -3.250182 -2.522526 1.239065 0
M  V30 20 N -2.803290 -3.117472 2.385515 0
M  V30 21 C -1.463737 -3.230546 2.557323 0
M  V30 22 H -0.834238 -5.341624 5.082278 0
M  V30 23 H -1.297625 -3.745906 5.707336 0
M  V30 24 H -2.462117 -4.621567 4.680793 0
M  V30 25 H 1.619635 -2.847848 1.690212 0
M  V30 26 H 0.322140 -2.588886 -0.875054 0
M  V30 27 H 2.178714 -1.413980 -1.716644 0
M  V30 28 H 3.196177 0.660853 -2.394106 0
M  V30 29 H 3.207865 3.115559 -2.490911 0
M  V30 30 H 2.161120 5.297270 -1.951836 0
M  V30 31 H 0.002259 5.332544 -0.669880 0
M  V30 32 H -1.061222 3.214854 0.041120 0
M  V30 33 H -1.028476 0.751733 0.113459 0
M  V30 34 H -4.296343 -2.350367 0.943210 0
M  V30 END ATOM
M  V30 BEGIN BOND
M  V30 1 1 1 2
M  V30 2 1 2 3
M  V30 3 2 3 4
M  V30 4 1 4 5
M  V30 5 2 5 6
M  V30 6 1 6 7
M  V30 7 1 7 8
M  V30 8 2 8 9
M  V30 9 1 9 10
M  V30 10 2 10 11
M  V30 11 1 11 12
M  V30 12 2 12 13
M  V30 13 1 13 14
M  V30 14 2 14 15
M  V30 15 1 15 16
M  V30 16 2 16 17
M  V30 17 1 6 18
M  V30 18 2 18 19
M  V30 19 1 19 20
M  V30 20 2 20 21
M  V30 21 1 21 2
M  V30 22 1 21 5
M  V30 23 1 17 8
M  V30 24 1 16 11
M  V30 25 1 1 22
M  V30 26 1 1 23
M  V30 27 1 1 24
M  V30 28 1 4 25
M  V30 29 1 7 26
M  V30 30 1 9 27
M  V30 31 1 10 28
M  V30 32 1 12 29
M  V30 33 1 13 30
M  V30 34 1 14 31
M  V30 35 1 15 32
M  V30 36 1 17 33
M  V30 37 1 19 34
M  V30 END BOND
M  V30 END CTAB
M  END
>  <Dataset>  (125) 
ChEMBL_Kinases

>  <Ligand_Instance>  (125) 
nan

>  <PDB_ID>  (125) 
nan

>  <Standardized_SMILES>  (125) 
Cn1ncc2c(Nc3ccc4ccccc4c3)ncnc21

>  <Name>  (125) 
nan

>  <Pocket>  (125) 
nan

>  <ATP_Site>  (125) 
nan

>  <Peripheral>  (125) 
nan

>  <Num_H_Atoms_ProtBoundConf>  (125) 
nan

>  <Num_Resolved_Atoms>  (125) 
nan

>  <Num_Not_Resolved_Atoms>  (125) 
nan

$$$$
CHEMBL1575372
     RDKit          3D

  0  0  0  0  0  0  0  0  0  0999 V3000
M  V30 BEGIN CTAB
M  V30 COUNTS 43 45 0 0 0
M  V30 BEGIN ATOM
M  V30 1 Cl -2.174972 -5.429097 3.613652 0
M  V30 2 C -0.809903 -4.777069 2.738556 0
M  V30 3 C -0.714056 -5.009729 1.387546 0
M  V30 4 C 0.332888 -4.526735 0.637216 0
M  V30 5 C 1.349793 -3.782363 1.181089 0
M  V30 6 C 2.541703 -3.167328 0.556617 0
M  V30 7 O 2.305590 -1.862248 0.233844 0
M  V30 8 C 1.438006 -1.215615 -0.579890 0
M  V30 9 C 0.418335 -1.525268 -1.447857 0
M  V30 10 C -0.289912 -0.576967 -2.144939 0
M  V30 11 C 0.031284 0.751046 -1.971460 0
M  V30 12 C 1.055452 1.176761 -1.109253 0
M  V30 13 C 1.227576 2.615135 -1.112280 0
M  V30 14 N 0.460215 3.453208 -0.331702 0
M  V30 15 C 0.412085 3.487255 1.049953 0
M  V30 16 C -0.084444 2.353040 1.819034 0
M  V30 17 C 0.565503 1.293500 2.440191 0
M  V30 18 C -0.075930 0.306899 3.120069 0
M  V30 19 N -1.404383 0.273161 3.249797 0
M  V30 20 C -2.133728 1.262305 2.680024 0
M  V30 21 C -1.461423 2.251847 1.995700 0
M  V30 22 C 1.732689 0.150207 -0.432940 0
M  V30 23 C 1.213389 -3.569740 2.556122 0
M  V30 24 C 0.181832 -4.035994 3.341082 0
M  V30 25 H -1.454876 -5.585224 0.836019 0
M  V30 26 H 0.447830 -4.696342 -0.432563 0
M  V30 27 H 2.911246 -3.790689 -0.306941 0
M  V30 28 H 3.378476 -3.181826 1.317370 0
M  V30 29 H 0.289657 -2.591318 -1.481013 0
M  V30 30 H -1.062561 -0.952356 -2.791008 0
M  V30 31 H -0.597320 1.416607 -2.575864 0
M  V30 32 H 1.171139 2.985542 -2.189726 0
M  V30 33 H 2.333380 2.788115 -0.863326 0
M  V30 34 H -0.154953 4.140646 -0.836363 0
M  V30 35 H -0.257923 4.362953 1.338940 0
M  V30 36 H 1.396391 3.815162 1.505981 0
M  V30 37 H 1.656968 1.359712 2.311885 0
M  V30 38 H 0.535399 -0.475552 3.567989 0
M  V30 39 H -3.202872 1.259651 2.768895 0
M  V30 40 H -2.117421 3.021382 1.559651 0
M  V30 41 H 2.484867 0.671797 0.180160 0
M  V30 42 H 1.964423 -2.988126 3.106998 0
M  V30 43 H 0.135524 -3.835728 4.401535 0
M  V30 END ATOM
M  V30 BEGIN BOND
M  V30 1 1 1 2
M  V30 2 2 2 3
M  V30 3 1 3 4
M  V30 4 2 4 5
M  V30 5 1 5 6
M  V30 6 1 6 7
M  V30 7 1 7 8
M  V30 8 2 8 9
M  V30 9 1 9 10
M  V30 10 2 10 11
M  V30 11 1 11 12
M  V30 12 1 12 13
M  V30 13 1 13 14
M  V30 14 1 14 15
M  V30 15 1 15 16
M  V30 16 2 16 17
M  V30 17 1 17 18
M  V30 18 2 18 19
M  V30 19 1 19 20
M  V30 20 2 20 21
M  V30 21 2 12 22
M  V30 22 1 5 23
M  V30 23 2 23 24
M  V30 24 1 24 2
M  V30 25 1 22 8
M  V30 26 1 21 16
M  V30 27 1 3 25
M  V30 28 1 4 26
M  V30 29 1 6 27
M  V30 30 1 6 28
M  V30 31 1 9 29
M  V30 32 1 10 30
M  V30 33 1 11 31
M  V30 34 1 13 32
M  V30 35 1 13 33
M  V30 36 1 14 34
M  V30 37 1 15 35
M  V30 38 1 15 36
M  V30 39 1 17 37
M  V30 40 1 18 38
M  V30 41 1 20 39
M  V30 42 1 21 40
M  V30 43 1 22 41
M  V30 44 1 23 42
M  V30 45 1 24 43
M  V30 END BOND
M  V30 END CTAB
M  END
>  <Dataset>  (126) 
ChEMBL_Kinases

>  <Ligand_Instance>  (126) 
nan

>  <PDB_ID>  (126) 
nan

>  <Standardized_SMILES>  (126) 
Clc1ccc(COc2cccc(CNCc3ccncc3)c2)cc1

>  <Name>  (126) 
nan

>  <Pocket>  (126) 
nan

>  <ATP_Site>  (126) 
nan

>  <Peripheral>  (126) 
nan

>  <Num_H_Atoms_ProtBoundConf>  (126) 
nan

>  <Num_Resolved_Atoms>  (126) 
nan

>  <Num_Not_Resolved_Atoms>  (126) 
nan

$$$$
CHEMBL1575188
     RDKit          3D

  0  0  0  0  0  0  0  0  0  0999 V3000
M  V30 BEGIN CTAB
M  V30 COUNTS 31 32 0 0 0
M  V30 BEGIN ATOM
M  V30 1 C 0.792169 -3.253376 1.113999 0
M  V30 2 C 0.437173 -2.068937 1.887169 0
M  V30 3 C -0.379237 -2.123194 3.027460 0
M  V30 4 C -0.701281 -1.004126 3.766482 0
M  V30 5 C -0.218310 0.237220 3.399005 0
M  V30 6 N -0.574143 1.341058 4.183234 0
M  V30 7 C 0.592062 0.283157 2.265124 0
M  V30 8 C 0.925149 -0.841264 1.508797 0
M  V30 9 C 1.780839 -0.539654 0.337796 0
M  V30 10 N 1.017331 -0.454426 -0.918851 0
M  V30 11 C 0.522976 -1.169943 -2.092171 0
M  V30 12 C -0.945297 -0.740007 -2.093595 0
M  V30 13 C -0.787221 0.788601 -2.015206 0
M  V30 14 C 0.497353 0.868203 -1.232823 0
M  V30 15 O 0.890799 2.066771 -0.989848 0
M  V30 16 H 1.772143 -3.655556 1.496565 0
M  V30 17 H 0.769743 -3.199975 0.040269 0
M  V30 18 H 0.063960 -4.069742 1.399838 0
M  V30 19 H -0.730560 -3.126692 3.268859 0
M  V30 20 H -1.342899 -1.116651 4.645320 0
M  V30 21 H 0.058427 2.131774 4.497436 0
M  V30 22 H -1.552101 1.395011 4.489217 0
M  V30 23 H 0.933703 1.286256 2.036698 0
M  V30 24 H 2.361463 0.390428 0.455081 0
M  V30 25 H 2.550794 -1.333087 0.175658 0
M  V30 26 H 0.942277 -0.688084 -3.028354 0
M  V30 27 H 0.675827 -2.239190 -2.081352 0
M  V30 28 H -1.436960 -1.087042 -1.176547 0
M  V30 29 H -1.463735 -1.004189 -3.017659 0
M  V30 30 H -0.674462 1.209584 -3.017415 0
M  V30 31 H -1.623345 1.192760 -1.414725 0
M  V30 END ATOM
M  V30 BEGIN BOND
M  V30 1 1 1 2
M  V30 2 2 2 3
M  V30 3 1 3 4
M  V30 4 2 4 5
M  V30 5 1 5 6
M  V30 6 1 5 7
M  V30 7 2 7 8
M  V30 8 1 8 9
M  V30 9 1 9 10
M  V30 10 1 10 11
M  V30 11 1 11 12
M  V30 12 1 12 13
M  V30 13 1 13 14
M  V30 14 2 14 15
M  V30 15 1 8 2
M  V30 16 1 14 10
M  V30 17 1 1 16
M  V30 18 1 1 17
M  V30 19 1 1 18
M  V30 20 1 3 19
M  V30 21 1 4 20
M  V30 22 1 6 21
M  V30 23 1 6 22
M  V30 24 1 7 23
M  V30 25 1 9 24
M  V30 26 1 9 25
M  V30 27 1 11 26
M  V30 28 1 11 27
M  V30 29 1 12 28
M  V30 30 1 12 29
M  V30 31 1 13 30
M  V30 32 1 13 31
M  V30 END BOND
M  V30 END CTAB
M  END
>  <Dataset>  (127) 
ChEMBL_Kinases

>  <Ligand_Instance>  (127) 
nan

>  <PDB_ID>  (127) 
nan

>  <Standardized_SMILES>  (127) 
Cc1ccc(N)cc1CN1CCCC1=O

>  <Name>  (127) 
nan

>  <Pocket>  (127) 
nan

>  <ATP_Site>  (127) 
nan

>  <Peripheral>  (127) 
nan

>  <Num_H_Atoms_ProtBoundConf>  (127) 
nan

>  <Num_Resolved_Atoms>  (127) 
nan

>  <Num_Not_Resolved_Atoms>  (127) 
nan

$$$$
CHEMBL1575167
     RDKit          3D

  0  0  0  0  0  0  0  0  0  0999 V3000
M  V30 BEGIN CTAB
M  V30 COUNTS 26 26 0 0 0
M  V30 BEGIN ATOM
M  V30 1 C 1.165524 0.727779 3.698176 0
M  V30 2 N 0.427750 0.281226 2.505674 0
M  V30 3 C 0.660657 -1.106134 2.183734 0
M  V30 4 C -0.282168 -1.601220 1.113612 0
M  V30 5 C -0.262706 -0.873792 -0.137754 0
M  V30 6 C -0.942288 0.340352 -0.263924 0
M  V30 7 C -1.798368 1.210202 0.616791 0
M  V30 8 N -0.734584 0.777566 -1.548692 0
M  V30 9 N 0.017189 -0.075202 -2.213980 0
M  V30 10 C 0.304120 -1.076646 -1.368800 0
M  V30 11 C 1.150205 -2.278541 -1.697518 0
M  V30 12 H 0.584082 1.520793 4.252367 0
M  V30 13 H 1.331558 -0.138988 4.392068 0
M  V30 14 H 2.161731 1.110493 3.397485 0
M  V30 15 H 0.762834 0.906758 1.704927 0
M  V30 16 H 1.703019 -1.147289 1.784844 0
M  V30 17 H 0.534737 -1.688522 3.124670 0
M  V30 18 H -0.038277 -2.679842 0.896688 0
M  V30 19 H -1.322288 -1.631685 1.528225 0
M  V30 20 H -1.228664 2.088729 0.959418 0
M  V30 21 H -2.645743 1.570348 0.018271 0
M  V30 22 H -2.183629 0.596993 1.433000 0
M  V30 23 H 0.324913 0.029803 -3.229338 0
M  V30 24 H 2.096041 -2.155141 -1.152747 0
M  V30 25 H 0.608358 -3.221745 -1.491875 0
M  V30 26 H 1.381954 -2.223223 -2.787178 0
M  V30 END ATOM
M  V30 BEGIN BOND
M  V30 1 1 1 2
M  V30 2 1 2 3
M  V30 3 1 3 4
M  V30 4 1 4 5
M  V30 5 1 5 6
M  V30 6 1 6 7
M  V30 7 2 6 8
M  V30 8 1 8 9
M  V30 9 1 9 10
M  V30 10 1 10 11
M  V30 11 2 10 5
M  V30 12 1 1 12
M  V30 13 1 1 13
M  V30 14 1 1 14
M  V30 15 1 2 15
M  V30 16 1 3 16
M  V30 17 1 3 17
M  V30 18 1 4 18
M  V30 19 1 4 19
M  V30 20 1 7 20
M  V30 21 1 7 21
M  V30 22 1 7 22
M  V30 23 1 9 23
M  V30 24 1 11 24
M  V30 25 1 11 25
M  V30 26 1 11 26
M  V30 END BOND
M  V30 END CTAB
M  END
>  <Dataset>  (128) 
ChEMBL_Kinases

>  <Ligand_Instance>  (128) 
nan

>  <PDB_ID>  (128) 
nan

>  <Standardized_SMILES>  (128) 
CNCCc1c(C)n[nH]c1C

>  <Name>  (128) 
nan

>  <Pocket>  (128) 
nan

>  <ATP_Site>  (128) 
nan

>  <Peripheral>  (128) 
nan

>  <Num_H_Atoms_ProtBoundConf>  (128) 
nan

>  <Num_Resolved_Atoms>  (128) 
nan

>  <Num_Not_Resolved_Atoms>  (128) 
nan

$$$$
CHEMBL1575051
     RDKit          3D

  0  0  0  0  0  0  0  0  0  0999 V3000
M  V30 BEGIN CTAB
M  V30 COUNTS 44 48 0 0 0
M  V30 BEGIN ATOM
M  V30 1 O 0.653168 -3.004420 3.879919 0
M  V30 2 C 0.781422 -2.769488 2.626163 0
M  V30 3 C 2.154423 -3.136504 2.440350 0
M  V30 4 S 2.940702 -2.604784 0.876029 0
M  V30 5 C 3.232167 -0.850839 0.886528 0
M  V30 6 N 4.426053 -0.561209 1.488066 0
M  V30 7 C 4.849885 0.710627 1.607418 0
M  V30 8 N 4.101964 1.734967 1.133242 0
M  V30 9 C 2.924658 1.435788 0.539901 0
M  V30 10 C 2.436566 0.131040 0.389239 0
M  V30 11 O 1.287391 0.112776 -0.218056 0
M  V30 12 C 0.952528 1.379434 -0.501376 0
M  V30 13 C -0.176777 1.826939 -1.135872 0
M  V30 14 C -0.274106 3.216422 -1.300506 0
M  V30 15 C 0.703652 4.091026 -0.853453 0
M  V30 16 C 1.824047 3.580232 -0.218645 0
M  V30 17 C 1.944587 2.218908 -0.044290 0
M  V30 18 N -0.487923 -2.302297 2.204379 0
M  V30 19 C -1.525567 -1.877244 3.147115 0
M  V30 20 C -2.564036 -1.004970 2.548328 0
M  V30 21 C -2.088936 -0.281910 1.329855 0
M  V30 22 C -1.675066 -1.229624 0.267056 0
M  V30 23 C -1.935124 -1.328033 -1.075866 0
M  V30 24 C -1.435700 -2.281887 -1.916479 0
M  V30 25 C -0.572880 -3.269389 -1.394989 0
M  V30 26 C -0.321272 -3.159572 -0.040009 0
M  V30 27 C -0.827502 -2.195883 0.808729 0
M  V30 28 H 2.273720 -4.245954 2.521185 0
M  V30 29 H 2.803262 -2.644366 3.236585 0
M  V30 30 H 5.767983 1.035330 2.060619 0
M  V30 31 H -1.005899 1.288430 -1.534481 0
M  V30 32 H -1.154443 3.643449 -1.799871 0
M  V30 33 H 0.528001 5.163837 -1.032475 0
M  V30 34 H 2.583604 4.291147 0.125400 0
M  V30 35 H -2.030765 -2.772456 3.598098 0
M  V30 36 H -1.061142 -1.340710 4.015425 0
M  V30 37 H -3.538395 -1.527272 2.363130 0
M  V30 38 H -2.823825 -0.195350 3.298005 0
M  V30 39 H -1.147331 0.262824 1.631068 0
M  V30 40 H -2.890810 0.415549 1.004968 0
M  V30 41 H -2.614321 -0.509933 -1.373445 0
M  V30 42 H -1.762899 -2.184064 -2.945225 0
M  V30 43 H -0.210923 -3.989136 -2.101763 0
M  V30 44 H 0.353745 -3.942248 0.337592 0
M  V30 END ATOM
M  V30 BEGIN BOND
M  V30 1 2 1 2
M  V30 2 1 2 3
M  V30 3 1 3 4
M  V30 4 1 4 5
M  V30 5 2 5 6
M  V30 6 1 6 7
M  V30 7 2 7 8
M  V30 8 1 8 9
M  V30 9 2 9 10
M  V30 10 1 10 11
M  V30 11 1 11 12
M  V30 12 2 12 13
M  V30 13 1 13 14
M  V30 14 2 14 15
M  V30 15 1 15 16
M  V30 16 2 16 17
M  V30 17 1 2 18
M  V30 18 1 18 19
M  V30 19 1 19 20
M  V30 20 1 20 21
M  V30 21 1 21 22
M  V30 22 2 22 23
M  V30 23 1 23 24
M  V30 24 2 24 25
M  V30 25 1 25 26
M  V30 26 2 26 27
M  V30 27 1 10 5
M  V30 28 1 17 12
M  V30 29 1 27 18
M  V30 30 1 17 9
M  V30 31 1 27 22
M  V30 32 1 3 28
M  V30 33 1 3 29
M  V30 34 1 7 30
M  V30 35 1 13 31
M  V30 36 1 14 32
M  V30 37 1 15 33
M  V30 38 1 16 34
M  V30 39 1 19 35
M  V30 40 1 19 36
M  V30 41 1 20 37
M  V30 42 1 20 38
M  V30 43 1 21 39
M  V30 44 1 21 40
M  V30 45 1 23 41
M  V30 46 1 24 42
M  V30 47 1 25 43
M  V30 48 1 26 44
M  V30 END BOND
M  V30 END CTAB
M  END
>  <Dataset>  (129) 
ChEMBL_Kinases

>  <Ligand_Instance>  (129) 
nan

>  <PDB_ID>  (129) 
nan

>  <Standardized_SMILES>  (129) 
O=C(CSc1ncnc2c1oc1ccccc12)N1CCCc2ccccc21

>  <Name>  (129) 
nan

>  <Pocket>  (129) 
nan

>  <ATP_Site>  (129) 
nan

>  <Peripheral>  (129) 
nan

>  <Num_H_Atoms_ProtBoundConf>  (129) 
nan

>  <Num_Resolved_Atoms>  (129) 
nan

>  <Num_Not_Resolved_Atoms>  (129) 
nan

$$$$
CHEMBL1575014
     RDKit          3D

  0  0  0  0  0  0  0  0  0  0999 V3000
M  V30 BEGIN CTAB
M  V30 COUNTS 47 50 0 0 0
M  V30 BEGIN ATOM
M  V30 1 C -4.352822 -1.483484 4.450946 0
M  V30 2 O -3.044116 -1.968063 4.329878 0
M  V30 3 C -2.043119 -1.393578 3.583607 0
M  V30 4 C -2.179074 -0.244187 2.835945 0
M  V30 5 C -1.148283 0.305816 2.095179 0
M  V30 6 C 0.098241 -0.283142 2.065907 0
M  V30 7 C 1.002958 0.495833 1.264644 0
M  V30 8 N 0.976091 1.779443 0.895252 0
M  V30 9 C 2.022103 1.979213 0.075161 0
M  V30 10 C 2.270853 3.320700 -0.510487 0
M  V30 11 C 1.419333 4.354078 -0.206522 0
M  V30 12 C 1.689307 5.586225 -0.773995 0
M  V30 13 C 2.791144 5.729156 -1.614404 0
M  V30 14 C 3.647340 4.688149 -1.919521 0
M  V30 15 C 3.371187 3.455132 -1.347261 0
M  V30 16 N 2.670421 0.810124 -0.043023 0
M  V30 17 C 2.050147 -0.164223 0.699980 0
M  V30 18 S 2.976396 -1.580842 0.339027 0
M  V30 19 C 2.460895 -3.169305 0.837992 0
M  V30 20 C 1.174230 -3.523425 0.162791 0
M  V30 21 O 0.655988 -2.696412 -0.621745 0
M  V30 22 N 0.569193 -4.763241 0.412460 0
M  V30 23 C -0.640998 -4.937767 -0.307273 0
M  V30 24 N -1.310602 -4.188406 -1.151405 0
M  V30 25 C -2.438158 -4.740602 -1.618207 0
M  V30 26 C -2.981773 -6.077741 -1.279409 0
M  V30 27 S -1.578708 -6.551283 -0.087719 0
M  V30 28 C 0.191630 -1.413751 2.818279 0
M  V30 29 C -0.806075 -1.992687 3.566928 0
M  V30 30 H -4.762462 -1.832618 5.441543 0
M  V30 31 H -4.395741 -0.364239 4.471261 0
M  V30 32 H -5.054908 -1.843716 3.677642 0
M  V30 33 H -3.167495 0.195387 2.872795 0
M  V30 34 H -1.461091 1.224121 1.570306 0
M  V30 35 H 0.244362 2.419108 1.233216 0
M  V30 36 H 0.560141 4.263748 0.442535 0
M  V30 37 H 1.040845 6.431046 -0.560256 0
M  V30 38 H 3.009213 6.690745 -2.062174 0
M  V30 39 H 4.500894 4.808567 -2.573519 0
M  V30 40 H 3.998827 2.581921 -1.537665 0
M  V30 41 H 2.489263 -3.441635 1.901421 0
M  V30 42 H 3.211308 -3.917872 0.384401 0
M  V30 43 H 0.949797 -5.487939 1.051437 0
M  V30 44 H -2.877182 -3.993704 -2.306033 0
M  V30 45 H -3.851969 -6.297437 -1.748237 0
M  V30 46 H 1.180896 -1.819624 2.813953 0
M  V30 47 H -0.538343 -2.891858 4.095967 0
M  V30 END ATOM
M  V30 BEGIN BOND
M  V30 1 1 1 2
M  V30 2 1 2 3
M  V30 3 2 3 4
M  V30 4 1 4 5
M  V30 5 2 5 6
M  V30 6 1 6 7
M  V30 7 1 7 8
M  V30 8 1 8 9
M  V30 9 1 9 10
M  V30 10 2 10 11
M  V30 11 1 11 12
M  V30 12 2 12 13
M  V30 13 1 13 14
M  V30 14 2 14 15
M  V30 15 2 9 16
M  V30 16 1 16 17
M  V30 17 1 17 18
M  V30 18 1 18 19
M  V30 19 1 19 20
M  V30 20 2 20 21
M  V30 21 1 20 22
M  V30 22 1 22 23
M  V30 23 2 23 24
M  V30 24 1 24 25
M  V30 25 2 25 26
M  V30 26 1 26 27
M  V30 27 1 6 28
M  V30 28 2 28 29
M  V30 29 1 29 3
M  V30 30 2 17 7
M  V30 31 1 27 23
M  V30 32 1 15 10
M  V30 33 1 1 30
M  V30 34 1 1 31
M  V30 35 1 1 32
M  V30 36 1 4 33
M  V30 37 1 5 34
M  V30 38 1 8 35
M  V30 39 1 11 36
M  V30 40 1 12 37
M  V30 41 1 13 38
M  V30 42 1 14 39
M  V30 43 1 15 40
M  V30 44 1 19 41
M  V30 45 1 19 42
M  V30 46 1 22 43
M  V30 47 1 25 44
M  V30 48 1 26 45
M  V30 49 1 28 46
M  V30 50 1 29 47
M  V30 END BOND
M  V30 END CTAB
M  END
>  <Dataset>  (130) 
ChEMBL_Kinases

>  <Ligand_Instance>  (130) 
nan

>  <PDB_ID>  (130) 
nan

>  <Standardized_SMILES>  (130) 
COc1ccc(-c2[nH]c(-c3ccccc3)nc2SCC(=O)Nc2nccs2)cc1

>  <Name>  (130) 
nan

>  <Pocket>  (130) 
nan

>  <ATP_Site>  (130) 
nan

>  <Peripheral>  (130) 
nan

>  <Num_H_Atoms_ProtBoundConf>  (130) 
nan

>  <Num_Resolved_Atoms>  (130) 
nan

>  <Num_Not_Resolved_Atoms>  (130) 
nan

$$$$
CHEMBL1573155
     RDKit          3D

  0  0  0  0  0  0  0  0  0  0999 V3000
M  V30 BEGIN CTAB
M  V30 COUNTS 58 61 0 0 0
M  V30 BEGIN ATOM
M  V30 1 O 0.082169 1.850880 1.860380 0
M  V30 2 C 0.260301 0.677978 2.302066 0
M  V30 3 C 0.979173 -0.421928 2.932759 0
M  V30 4 C 2.376970 -0.152723 3.406259 0
M  V30 5 N 3.309294 0.248030 2.437097 0
M  V30 6 C 4.057392 -0.757586 1.711420 0
M  V30 7 O 4.040567 -1.966284 2.119649 0
M  V30 8 C 4.861867 -0.487583 0.500598 0
M  V30 9 O 5.296777 0.857967 0.440887 0
M  V30 10 C 4.624795 1.886444 1.097308 0
M  V30 11 C 4.913723 3.200538 0.793160 0
M  V30 12 C 4.252833 4.222615 1.443888 0
M  V30 13 C 3.298396 3.928041 2.403335 0
M  V30 14 C 3.052555 2.602657 2.663326 0
M  V30 15 C 3.670696 1.554910 2.054810 0
M  V30 16 N -1.054964 0.169878 1.947635 0
M  V30 17 C -1.984025 1.097925 1.289504 0
M  V30 18 C -3.312707 0.426414 0.978182 0
M  V30 19 N -3.140206 -0.706997 0.099411 0
M  V30 20 C -4.425705 -1.296686 -0.144566 0
M  V30 21 C -4.234770 -2.690339 -0.759280 0
M  V30 22 N -3.086400 -2.581838 -1.663948 0
M  V30 23 C -2.215893 -3.665903 -1.853583 0
M  V30 24 C -2.513377 -4.870076 -1.283786 0
M  V30 25 C -1.716860 -5.985714 -1.429116 0
M  V30 26 C -0.542749 -5.930367 -2.184290 0
M  V30 27 C -0.206296 -4.734098 -2.776272 0
M  V30 28 C -1.049564 -3.663440 -2.587017 0
M  V30 29 F -0.669388 -2.513315 -3.186077 0
M  V30 30 C -3.050332 -1.272114 -2.261214 0
M  V30 31 C -2.532421 -0.339384 -1.160062 0
M  V30 32 H 0.418472 -0.777993 3.848030 0
M  V30 33 H 1.012584 -1.313109 2.250022 0
M  V30 34 H 2.287935 0.458056 4.313444 0
M  V30 35 H 2.726016 -1.154450 3.812190 0
M  V30 36 H 4.260581 -0.746496 -0.409353 0
M  V30 37 H 5.763774 -1.128396 0.504845 0
M  V30 38 H 5.672492 3.370756 0.031005 0
M  V30 39 H 4.524465 5.241343 1.160063 0
M  V30 40 H 2.794764 4.745753 2.899576 0
M  V30 41 H 2.304042 2.401131 3.416436 0
M  V30 42 H -1.470201 -0.806815 2.094601 0
M  V30 43 H -2.114487 1.995352 1.909413 0
M  V30 44 H -1.547729 1.408589 0.337602 0
M  V30 45 H -3.903401 1.189163 0.431213 0
M  V30 46 H -3.876782 0.189179 1.884183 0
M  V30 47 H -4.931252 -1.426357 0.841224 0
M  V30 48 H -5.093470 -0.698280 -0.789328 0
M  V30 49 H -3.893660 -3.338538 0.085881 0
M  V30 50 H -5.147297 -3.025115 -1.254568 0
M  V30 51 H -3.369465 -5.114101 -0.672669 0
M  V30 52 H -1.891889 -6.962066 -1.008142 0
M  V30 53 H 0.107556 -6.781407 -2.322234 0
M  V30 54 H 0.696546 -4.658941 -3.367793 0
M  V30 55 H -4.084099 -0.896065 -2.531740 0
M  V30 56 H -2.478889 -1.181876 -3.181253 0
M  V30 57 H -1.446980 -0.384542 -1.185040 0
M  V30 58 H -2.916868 0.669470 -1.402806 0
M  V30 END ATOM
M  V30 BEGIN BOND
M  V30 1 2 1 2
M  V30 2 1 2 3
M  V30 3 1 3 4
M  V30 4 1 4 5
M  V30 5 1 5 6
M  V30 6 2 6 7
M  V30 7 1 6 8
M  V30 8 1 8 9
M  V30 9 1 9 10
M  V30 10 2 10 11
M  V30 11 1 11 12
M  V30 12 2 12 13
M  V30 13 1 13 14
M  V30 14 2 14 15
M  V30 15 1 2 16
M  V30 16 1 16 17
M  V30 17 1 17 18
M  V30 18 1 18 19
M  V30 19 1 19 20
M  V30 20 1 20 21
M  V30 21 1 21 22
M  V30 22 1 22 23
M  V30 23 2 23 24
M  V30 24 1 24 25
M  V30 25 2 25 26
M  V30 26 1 26 27
M  V30 27 2 27 28
M  V30 28 1 28 29
M  V30 29 1 22 30
M  V30 30 1 30 31
M  V30 31 1 15 5
M  V30 32 1 31 19
M  V30 33 1 15 10
M  V30 34 1 28 23
M  V30 35 1 3 32
M  V30 36 1 3 33
M  V30 37 1 4 34
M  V30 38 1 4 35
M  V30 39 1 8 36
M  V30 40 1 8 37
M  V30 41 1 11 38
M  V30 42 1 12 39
M  V30 43 1 13 40
M  V30 44 1 14 41
M  V30 45 1 16 42
M  V30 46 1 17 43
M  V30 47 1 17 44
M  V30 48 1 18 45
M  V30 49 1 18 46
M  V30 50 1 20 47
M  V30 51 1 20 48
M  V30 52 1 21 49
M  V30 53 1 21 50
M  V30 54 1 24 51
M  V30 55 1 25 52
M  V30 56 1 26 53
M  V30 57 1 27 54
M  V30 58 1 30 55
M  V30 59 1 30 56
M  V30 60 1 31 57
M  V30 61 1 31 58
M  V30 END BOND
M  V30 END CTAB
M  END
>  <Dataset>  (131) 
ChEMBL_Kinases

>  <Ligand_Instance>  (131) 
nan

>  <PDB_ID>  (131) 
nan

>  <Standardized_SMILES>  (131) 
O=C(CCN1C(=O)COc2ccccc21)NCCN1CCN(c2ccccc2F)CC1

>  <Name>  (131) 
nan

>  <Pocket>  (131) 
nan

>  <ATP_Site>  (131) 
nan

>  <Peripheral>  (131) 
nan

>  <Num_H_Atoms_ProtBoundConf>  (131) 
nan

>  <Num_Resolved_Atoms>  (131) 
nan

>  <Num_Not_Resolved_Atoms>  (131) 
nan

$$$$
CHEMBL1573157
     RDKit          3D

  0  0  0  0  0  0  0  0  0  0999 V3000
M  V30 BEGIN CTAB
M  V30 COUNTS 46 48 0 0 0
M  V30 BEGIN ATOM
M  V30 1 C -0.035685 -5.331103 5.197922 0
M  V30 2 O -0.293342 -4.813722 3.932342 0
M  V30 3 C -0.796673 -5.461088 2.837615 0
M  V30 4 O -1.114270 -6.677771 2.818370 0
M  V30 5 C -0.964126 -4.651019 1.621396 0
M  V30 6 C -0.753632 -3.401601 1.265989 0
M  V30 7 C -1.031682 -2.959535 -0.003883 0
M  V30 8 C -0.758903 -1.567141 -0.337219 0
M  V30 9 C 0.013809 -0.992888 -1.314275 0
M  V30 10 C 0.113075 0.370931 -1.468227 0
M  V30 11 C -0.558351 1.252283 -0.648531 0
M  V30 12 S -0.366840 2.967751 -0.925499 0
M  V30 13 O -0.065366 3.255789 -2.375175 0
M  V30 14 O -1.631292 3.670956 -0.513984 0
M  V30 15 N 0.967253 3.543059 0.003491 0
M  V30 16 C 2.171933 2.872299 -0.425912 0
M  V30 17 C 3.326576 3.244784 0.499793 0
M  V30 18 C 3.067782 2.500666 1.793791 0
M  V30 19 C 1.603775 2.300971 2.041514 0
M  V30 20 C 0.751592 3.372969 1.415762 0
M  V30 21 C -1.350194 0.731851 0.352411 0
M  V30 22 C -1.426482 -0.638975 0.477249 0
M  V30 23 C -1.537663 -3.911989 -0.852536 0
M  V30 24 C -1.974683 -3.871506 -2.279750 0
M  V30 25 F -2.990187 -2.933322 -2.455847 0
M  V30 26 F -0.924048 -3.523906 -3.049500 0
M  V30 27 F -2.478798 -5.125965 -2.612474 0
M  V30 28 S -1.610551 -5.415690 0.160026 0
M  V30 29 H -0.304427 -4.542822 5.937802 0
M  V30 30 H 1.034972 -5.554782 5.380629 0
M  V30 31 H -0.612519 -6.217915 5.489810 0
M  V30 32 H -0.346156 -2.808710 2.095933 0
M  V30 33 H 0.542857 -1.690209 -1.935979 0
M  V30 34 H 0.766042 0.679995 -2.290976 0
M  V30 35 H 2.376719 3.172398 -1.471845 0
M  V30 36 H 2.068395 1.770054 -0.333023 0
M  V30 37 H 3.362770 4.314849 0.719700 0
M  V30 38 H 4.269520 2.951379 0.011372 0
M  V30 39 H 3.520851 2.992216 2.667337 0
M  V30 40 H 3.540374 1.505262 1.703150 0
M  V30 41 H 1.410927 2.350446 3.136705 0
M  V30 42 H 1.219267 1.315091 1.711682 0
M  V30 43 H -0.302445 3.142863 1.632133 0
M  V30 44 H 0.953594 4.332976 1.970390 0
M  V30 45 H -1.885088 1.400602 1.006583 0
M  V30 46 H -2.080383 -0.967249 1.301637 0
M  V30 END ATOM
M  V30 BEGIN BOND
M  V30 1 1 1 2
M  V30 2 1 2 3
M  V30 3 2 3 4
M  V30 4 1 3 5
M  V30 5 2 5 6
M  V30 6 1 6 7
M  V30 7 1 7 8
M  V30 8 2 8 9
M  V30 9 1 9 10
M  V30 10 2 10 11
M  V30 11 1 11 12
M  V30 12 2 12 13
M  V30 13 2 12 14
M  V30 14 1 12 15
M  V30 15 1 15 16
M  V30 16 1 16 17
M  V30 17 1 17 18
M  V30 18 1 18 19
M  V30 19 1 19 20
M  V30 20 1 11 21
M  V30 21 2 21 22
M  V30 22 2 7 23
M  V30 23 1 23 24
M  V30 24 1 24 25
M  V30 25 1 24 26
M  V30 26 1 24 27
M  V30 27 1 23 28
M  V30 28 1 28 5
M  V30 29 1 22 8
M  V30 30 1 20 15
M  V30 31 1 1 29
M  V30 32 1 1 30
M  V30 33 1 1 31
M  V30 34 1 6 32
M  V30 35 1 9 33
M  V30 36 1 10 34
M  V30 37 1 16 35
M  V30 38 1 16 36
M  V30 39 1 17 37
M  V30 40 1 17 38
M  V30 41 1 18 39
M  V30 42 1 18 40
M  V30 43 1 19 41
M  V30 44 1 19 42
M  V30 45 1 20 43
M  V30 46 1 20 44
M  V30 47 1 21 45
M  V30 48 1 22 46
M  V30 END BOND
M  V30 END CTAB
M  END
>  <Dataset>  (132) 
ChEMBL_Kinases

>  <Ligand_Instance>  (132) 
nan

>  <PDB_ID>  (132) 
nan

>  <Standardized_SMILES>  (132) 
COC(=O)c1cc(-c2ccc(S(=O)(=O)N3CCCCC3)cc2)c(C(F)(F)F)s1

>  <Name>  (132) 
nan

>  <Pocket>  (132) 
nan

>  <ATP_Site>  (132) 
nan

>  <Peripheral>  (132) 
nan

>  <Num_H_Atoms_ProtBoundConf>  (132) 
nan

>  <Num_Resolved_Atoms>  (132) 
nan

>  <Num_Not_Resolved_Atoms>  (132) 
nan

$$$$
CHEMBL1573271
     RDKit          3D

  0  0  0  0  0  0  0  0  0  0999 V3000
M  V30 BEGIN CTAB
M  V30 COUNTS 62 64 0 0 0
M  V30 BEGIN ATOM
M  V30 1 C 2.701403 4.899291 3.072747 0
M  V30 2 C 2.134526 3.530137 3.059889 0
M  V30 3 O 1.637003 3.404728 4.238891 0
M  V30 4 N 2.083051 2.490854 2.046056 0
M  V30 5 C 1.387346 1.356115 2.629906 0
M  V30 6 C 1.214124 0.200449 1.777845 0
M  V30 7 O 0.599616 -0.574035 2.611832 0
M  V30 8 N 1.473511 -0.316894 0.449666 0
M  V30 9 C 2.133866 0.477091 -0.576512 0
M  V30 10 C 1.160649 1.268137 -1.400016 0
M  V30 11 C 0.698164 2.522526 -1.158771 0
M  V30 12 C -0.184182 2.906098 -2.146442 0
M  V30 13 C -0.206823 1.804538 -2.972618 0
M  V30 14 O 0.572811 0.895947 -2.510398 0
M  V30 15 C 0.992078 -1.694539 0.264295 0
M  V30 16 C -0.508589 -1.565652 0.373375 0
M  V30 17 O -1.011365 -0.401630 0.567944 0
M  V30 18 N -1.489415 -2.590412 0.287998 0
M  V30 19 C -2.887473 -2.342465 0.408326 0
M  V30 20 C -3.541927 -3.014698 1.582618 0
M  V30 21 C -5.040132 -2.899227 1.397739 0
M  V30 22 C -5.380307 -1.695953 0.535509 0
M  V30 23 C -4.893976 -1.823140 -0.873780 0
M  V30 24 C -3.643842 -2.671291 -0.876639 0
M  V30 25 C 1.456385 -2.263124 -1.017120 0
M  V30 26 C 2.790586 -2.923710 -0.977687 0
M  V30 27 C 2.988840 -3.928614 0.108999 0
M  V30 28 C 1.791254 -3.985220 0.987767 0
M  V30 29 C 1.373470 -2.595054 1.415787 0
M  V30 30 H 1.881736 5.633139 3.186166 0
M  V30 31 H 3.164240 5.123340 2.076405 0
M  V30 32 H 3.430386 5.074548 3.876464 0
M  V30 33 H 2.594382 3.026284 1.286481 0
M  V30 34 H 0.389139 1.726036 3.021588 0
M  V30 35 H 1.969719 1.101670 3.567193 0
M  V30 36 H 2.781153 -0.123413 -1.248289 0
M  V30 37 H 2.811528 1.207045 -0.108532 0
M  V30 38 H 0.907312 3.208669 -0.365149 0
M  V30 39 H -0.782059 3.770626 -2.379995 0
M  V30 40 H -0.716107 1.531251 -3.899184 0
M  V30 41 H -1.104078 -3.547410 0.127223 0
M  V30 42 H -3.042288 -1.254414 0.569832 0
M  V30 43 H -3.253937 -4.047735 1.764568 0
M  V30 44 H -3.305439 -2.469574 2.539496 0
M  V30 45 H -5.533214 -2.729957 2.376524 0
M  V30 46 H -5.484143 -3.838384 1.006018 0
M  V30 47 H -4.975263 -0.804882 1.064990 0
M  V30 48 H -6.489564 -1.632982 0.488595 0
M  V30 49 H -4.558911 -0.799735 -1.212763 0
M  V30 50 H -5.667251 -2.204760 -1.569239 0
M  V30 51 H -3.859467 -3.748756 -0.986676 0
M  V30 52 H -2.990424 -2.388546 -1.741844 0
M  V30 53 H 1.496712 -1.542186 -1.868210 0
M  V30 54 H 0.748441 -3.055894 -1.408976 0
M  V30 55 H 3.668835 -2.263306 -1.007380 0
M  V30 56 H 2.867585 -3.509232 -1.946616 0
M  V30 57 H 3.901180 -3.702839 0.720795 0
M  V30 58 H 3.164076 -4.972731 -0.263699 0
M  V30 59 H 0.975862 -4.587976 0.588133 0
M  V30 60 H 2.112786 -4.488170 1.947680 0
M  V30 61 H 0.509678 -2.788224 2.124763 0
M  V30 62 H 2.185563 -2.193996 2.050140 0
M  V30 END ATOM
M  V30 BEGIN BOND
M  V30 1 1 1 2
M  V30 2 2 2 3
M  V30 3 1 2 4
M  V30 4 1 4 5
M  V30 5 1 5 6
M  V30 6 2 6 7
M  V30 7 1 6 8
M  V30 8 1 8 9
M  V30 9 1 9 10
M  V30 10 2 10 11
M  V30 11 1 11 12
M  V30 12 2 12 13
M  V30 13 1 13 14
M  V30 14 1 8 15
M  V30 15 1 15 16
M  V30 16 2 16 17
M  V30 17 1 16 18
M  V30 18 1 18 19
M  V30 19 1 19 20
M  V30 20 1 20 21
M  V30 21 1 21 22
M  V30 22 1 22 23
M  V30 23 1 23 24
M  V30 24 1 15 25
M  V30 25 1 25 26
M  V30 26 1 26 27
M  V30 27 1 27 28
M  V30 28 1 28 29
M  V30 29 1 14 10
M  V30 30 1 29 15
M  V30 31 1 24 19
M  V30 32 1 1 30
M  V30 33 1 1 31
M  V30 34 1 1 32
M  V30 35 1 4 33
M  V30 36 1 5 34
M  V30 37 1 5 35
M  V30 38 1 9 36
M  V30 39 1 9 37
M  V30 40 1 11 38
M  V30 41 1 12 39
M  V30 42 1 13 40
M  V30 43 1 18 41
M  V30 44 1 19 42
M  V30 45 1 20 43
M  V30 46 1 20 44
M  V30 47 1 21 45
M  V30 48 1 21 46
M  V30 49 1 22 47
M  V30 50 1 22 48
M  V30 51 1 23 49
M  V30 52 1 23 50
M  V30 53 1 24 51
M  V30 54 1 24 52
M  V30 55 1 25 53
M  V30 56 1 25 54
M  V30 57 1 26 55
M  V30 58 1 26 56
M  V30 59 1 27 57
M  V30 60 1 27 58
M  V30 61 1 28 59
M  V30 62 1 28 60
M  V30 63 1 29 61
M  V30 64 1 29 62
M  V30 END BOND
M  V30 END CTAB
M  END
>  <Dataset>  (133) 
ChEMBL_Kinases

>  <Ligand_Instance>  (133) 
nan

>  <PDB_ID>  (133) 
nan

>  <Standardized_SMILES>  (133) 
CC(=O)NCC(=O)N(Cc1ccco1)C1(C(=O)NC2CCCCC2)CCCCC1

>  <Name>  (133) 
nan

>  <Pocket>  (133) 
nan

>  <ATP_Site>  (133) 
nan

>  <Peripheral>  (133) 
nan

>  <Num_H_Atoms_ProtBoundConf>  (133) 
nan

>  <Num_Resolved_Atoms>  (133) 
nan

>  <Num_Not_Resolved_Atoms>  (133) 
nan

$$$$
CHEMBL1573454
     RDKit          3D

  0  0  0  0  0  0  0  0  0  0999 V3000
M  V30 BEGIN CTAB
M  V30 COUNTS 49 52 0 0 0
M  V30 BEGIN ATOM
M  V30 1 C 1.451795 -4.014727 6.581659 0
M  V30 2 O 1.147823 -4.293967 5.211501 0
M  V30 3 C 1.573730 -3.419725 4.220895 0
M  V30 4 C 2.289719 -2.268315 4.473327 0
M  V30 5 C 2.679263 -1.446949 3.436101 0
M  V30 6 C 2.380742 -1.722145 2.096975 0
M  V30 7 C 2.849979 -0.793515 1.071135 0
M  V30 8 N 1.977197 0.303411 0.758872 0
M  V30 9 C 2.105094 1.530550 1.511522 0
M  V30 10 O 2.858574 1.791851 2.481675 0
M  V30 11 C 1.159401 2.471680 0.924511 0
M  V30 12 C 0.898127 3.782938 1.250384 0
M  V30 13 C -0.032609 4.505948 0.538806 0
M  V30 14 C -0.629177 3.790448 -0.476432 0
M  V30 15 N -0.391111 2.514777 -0.811094 0
M  V30 16 C 0.519506 1.820143 -0.108075 0
M  V30 17 C 0.954857 0.376773 -0.257802 0
M  V30 18 N -0.160491 -0.505067 -0.067998 0
M  V30 19 C -1.227979 -0.780961 -0.963889 0
M  V30 20 C -1.342050 -0.238725 -2.221783 0
M  V30 21 C -2.386311 -0.506295 -3.079717 0
M  V30 22 C -3.361460 -1.371056 -2.629097 0
M  V30 23 O -4.464494 -1.722795 -3.394627 0
M  V30 24 C -4.590453 -1.170532 -4.688012 0
M  V30 25 C -3.301802 -1.945562 -1.379419 0
M  V30 26 Cl -4.520522 -3.049838 -0.768880 0
M  V30 27 C -2.231344 -1.636691 -0.569961 0
M  V30 28 C 1.662396 -2.892653 1.935688 0
M  V30 29 C 1.250711 -3.742072 2.919260 0
M  V30 30 H 2.555592 -4.050457 6.750024 0
M  V30 31 H 1.102349 -3.003704 6.888846 0
M  V30 32 H 0.948712 -4.795873 7.187002 0
M  V30 33 H 2.505008 -2.082265 5.514415 0
M  V30 34 H 3.231706 -0.586881 3.787614 0
M  V30 35 H 3.856394 -0.425615 1.425587 0
M  V30 36 H 3.112760 -1.370071 0.147699 0
M  V30 37 H 1.420804 4.254869 2.066408 0
M  V30 38 H -0.274868 5.525772 0.748017 0
M  V30 39 H -1.378607 4.264213 -1.101399 0
M  V30 40 H 1.431424 0.277794 -1.247033 0
M  V30 41 H -0.150123 -0.976335 0.859129 0
M  V30 42 H -0.601239 0.422909 -2.592950 0
M  V30 43 H -2.455661 -0.071614 -4.057769 0
M  V30 44 H -3.779147 -1.619679 -5.310503 0
M  V30 45 H -4.400365 -0.071713 -4.684100 0
M  V30 46 H -5.591294 -1.330567 -5.123137 0
M  V30 47 H -2.174206 -2.080842 0.410942 0
M  V30 48 H 1.414991 -3.132577 0.896814 0
M  V30 49 H 0.699557 -4.621741 2.684468 0
M  V30 END ATOM
M  V30 BEGIN BOND
M  V30 1 1 1 2
M  V30 2 1 2 3
M  V30 3 2 3 4
M  V30 4 1 4 5
M  V30 5 2 5 6
M  V30 6 1 6 7
M  V30 7 1 7 8
M  V30 8 1 8 9
M  V30 9 2 9 10
M  V30 10 1 9 11
M  V30 11 2 11 12
M  V30 12 1 12 13
M  V30 13 2 13 14
M  V30 14 1 14 15
M  V30 15 2 15 16
M  V30 16 1 16 17
M  V30 17 1 17 18
M  V30 18 1 18 19
M  V30 19 2 19 20
M  V30 20 1 20 21
M  V30 21 2 21 22
M  V30 22 1 22 23
M  V30 23 1 23 24
M  V30 24 1 22 25
M  V30 25 1 25 26
M  V30 26 2 25 27
M  V30 27 1 6 28
M  V30 28 2 28 29
M  V30 29 1 29 3
M  V30 30 1 17 8
M  V30 31 1 27 19
M  V30 32 1 16 11
M  V30 33 1 1 30
M  V30 34 1 1 31
M  V30 35 1 1 32
M  V30 36 1 4 33
M  V30 37 1 5 34
M  V30 38 1 7 35
M  V30 39 1 7 36
M  V30 40 1 12 37
M  V30 41 1 13 38
M  V30 42 1 14 39
M  V30 43 1 17 40
M  V30 44 1 18 41
M  V30 45 1 20 42
M  V30 46 1 21 43
M  V30 47 1 24 44
M  V30 48 1 24 45
M  V30 49 1 24 46
M  V30 50 1 27 47
M  V30 51 1 28 48
M  V30 52 1 29 49
M  V30 END BOND
M  V30 END CTAB
M  END
>  <Dataset>  (134) 
ChEMBL_Kinases

>  <Ligand_Instance>  (134) 
nan

>  <PDB_ID>  (134) 
nan

>  <Standardized_SMILES>  (134) 
COc1ccc(CN2C(=O)c3cccnc3C2Nc2ccc(OC)c(Cl)c2)cc1

>  <Name>  (134) 
nan

>  <Pocket>  (134) 
nan

>  <ATP_Site>  (134) 
nan

>  <Peripheral>  (134) 
nan

>  <Num_H_Atoms_ProtBoundConf>  (134) 
nan

>  <Num_Resolved_Atoms>  (134) 
nan

>  <Num_Not_Resolved_Atoms>  (134) 
nan

$$$$
CHEMBL1573555
     RDKit          3D

  0  0  0  0  0  0  0  0  0  0999 V3000
M  V30 BEGIN CTAB
M  V30 COUNTS 41 44 0 0 0
M  V30 BEGIN ATOM
M  V30 1 C 0.690784 -7.155243 -0.054715 0
M  V30 2 O 0.860610 -6.573856 1.227742 0
M  V30 3 C 0.815370 -5.195110 1.383756 0
M  V30 4 C 0.982943 -4.651915 2.639410 0
M  V30 5 C 0.937070 -3.282066 2.788465 0
M  V30 6 C 0.724021 -2.530508 1.660051 0
M  V30 7 C 0.549798 -3.008927 0.382572 0
M  V30 8 N 0.329959 -2.233249 -0.781612 0
M  V30 9 C 0.242029 -0.823142 -0.888812 0
M  V30 10 N 0.027365 -0.252413 -2.086416 0
M  V30 11 C -0.068088 1.070368 -2.270425 0
M  V30 12 C 0.052739 1.935680 -1.209501 0
M  V30 13 N -0.036791 3.260970 -1.354513 0
M  V30 14 C 0.084913 4.108957 -0.293585 0
M  V30 15 C -0.006999 5.590688 -0.402892 0
M  V30 16 C 0.305087 3.505969 0.928987 0
M  V30 17 O 0.427071 4.246619 1.956708 0
M  V30 18 N 0.400474 2.174765 1.109818 0
M  V30 19 C 0.630501 1.611705 2.408933 0
M  V30 20 C -0.510558 0.870256 3.077337 0
M  V30 21 C 0.023373 2.172061 3.630778 0
M  V30 22 C 0.272068 1.382419 0.023847 0
M  V30 23 N 0.352064 0.048139 0.104482 0
M  V30 24 C 0.605193 -4.381814 0.293867 0
M  V30 25 H 0.507057 -8.256811 0.066476 0
M  V30 26 H -0.233627 -6.782469 -0.574780 0
M  V30 27 H 1.586810 -7.091675 -0.686657 0
M  V30 28 H 1.149558 -5.267822 3.512740 0
M  V30 29 H 1.065948 -2.833821 3.764075 0
M  V30 30 H 0.696546 -1.466605 1.828341 0
M  V30 31 H 0.217665 -2.777192 -1.682655 0
M  V30 32 H -0.241157 1.489783 -3.249294 0
M  V30 33 H 0.882692 6.006722 0.130774 0
M  V30 34 H -0.072919 5.895989 -1.445939 0
M  V30 35 H -0.880731 5.887482 0.219303 0
M  V30 36 H 1.617848 1.109973 2.566553 0
M  V30 37 H -0.301762 0.005470 3.737196 0
M  V30 38 H -1.473066 0.833210 2.561655 0
M  V30 39 H 0.604365 2.166902 4.576715 0
M  V30 40 H -0.744740 2.968430 3.619871 0
M  V30 41 H 0.481351 -4.873967 -0.663575 0
M  V30 END ATOM
M  V30 BEGIN BOND
M  V30 1 1 1 2
M  V30 2 1 2 3
M  V30 3 2 3 4
M  V30 4 1 4 5
M  V30 5 2 5 6
M  V30 6 1 6 7
M  V30 7 1 7 8
M  V30 8 1 8 9
M  V30 9 2 9 10
M  V30 10 1 10 11
M  V30 11 2 11 12
M  V30 12 1 12 13
M  V30 13 2 13 14
M  V30 14 1 14 15
M  V30 15 1 14 16
M  V30 16 2 16 17
M  V30 17 1 16 18
M  V30 18 1 18 19
M  V30 19 1 19 20
M  V30 20 1 20 21
M  V30 21 1 18 22
M  V30 22 2 22 23
M  V30 23 2 7 24
M  V30 24 1 24 3
M  V30 25 1 23 9
M  V30 26 1 22 12
M  V30 27 1 21 19
M  V30 28 1 1 25
M  V30 29 1 1 26
M  V30 30 1 1 27
M  V30 31 1 4 28
M  V30 32 1 5 29
M  V30 33 1 6 30
M  V30 34 1 8 31
M  V30 35 1 11 32
M  V30 36 1 15 33
M  V30 37 1 15 34
M  V30 38 1 15 35
M  V30 39 1 19 36
M  V30 40 1 20 37
M  V30 41 1 20 38
M  V30 42 1 21 39
M  V30 43 1 21 40
M  V30 44 1 24 41
M  V30 END BOND
M  V30 END CTAB
M  END
>  <Dataset>  (135) 
ChEMBL_Kinases

>  <Ligand_Instance>  (135) 
nan

>  <PDB_ID>  (135) 
nan

>  <Standardized_SMILES>  (135) 
COc1cccc(Nc2ncc3nc(C)c(=O)n(C4CC4)c3n2)c1

>  <Name>  (135) 
nan

>  <Pocket>  (135) 
nan

>  <ATP_Site>  (135) 
nan

>  <Peripheral>  (135) 
nan

>  <Num_H_Atoms_ProtBoundConf>  (135) 
nan

>  <Num_Resolved_Atoms>  (135) 
nan

>  <Num_Not_Resolved_Atoms>  (135) 
nan

$$$$
CHEMBL1573798
     RDKit          3D

  0  0  0  0  0  0  0  0  0  0999 V3000
M  V30 BEGIN CTAB
M  V30 COUNTS 60 62 0 0 0
M  V30 BEGIN ATOM
M  V30 1 O 0.670495 -3.262265 4.001786 0
M  V30 2 C 1.336344 -4.028247 3.043894 0
M  V30 3 C 2.273418 -3.099799 2.306891 0
M  V30 4 O 1.584709 -2.064946 1.688705 0
M  V30 5 C 2.239800 -1.095364 0.951041 0
M  V30 6 C 3.606482 -1.018265 0.730672 0
M  V30 7 C 4.075583 0.032354 -0.039799 0
M  V30 8 C 3.187676 0.979533 -0.572558 0
M  V30 9 C 1.798878 0.903533 -0.349252 0
M  V30 10 O 1.292155 1.974022 -1.014893 0
M  V30 11 C -0.075777 2.304386 -1.024129 0
M  V30 12 C -0.564115 2.696019 0.315491 0
M  V30 13 O 0.103863 3.882155 0.743644 0
M  V30 14 C -2.014138 2.864439 0.540983 0
M  V30 15 N -2.558391 3.987598 -0.186836 0
M  V30 16 C -3.907459 4.288831 0.327984 0
M  V30 17 C -4.387942 5.513718 -0.410821 0
M  V30 18 O -4.729222 5.134323 -1.714792 0
M  V30 19 C -4.218178 3.900832 -2.036780 0
M  V30 20 C -2.776605 3.692957 -1.600107 0
M  V30 21 C 1.402356 -0.148353 0.411786 0
M  V30 22 C 0.316780 -4.658237 2.156369 0
M  V30 23 N 0.878694 -5.488085 1.108590 0
M  V30 24 C -0.236784 -6.011514 0.357245 0
M  V30 25 C 0.073465 -7.167133 -0.517355 0
M  V30 26 O 1.112855 -7.975717 -0.175867 0
M  V30 27 C 2.182386 -7.324171 0.404872 0
M  V30 28 C 1.633546 -6.611163 1.622967 0
M  V30 29 H 0.794271 -2.285517 3.842141 0
M  V30 30 H 1.892052 -4.809001 3.595405 0
M  V30 31 H 3.064983 -2.707208 2.984628 0
M  V30 32 H 2.809111 -3.695879 1.538417 0
M  V30 33 H 4.210640 -1.790837 1.181779 0
M  V30 34 H 5.150274 -0.019987 -0.136935 0
M  V30 35 H 3.807658 1.683379 -1.126588 0
M  V30 36 H -0.279790 3.065614 -1.813640 0
M  V30 37 H -0.613429 1.363978 -1.324454 0
M  V30 38 H -0.220890 1.918661 1.078773 0
M  V30 39 H 0.359317 4.441250 -0.027078 0
M  V30 40 H -2.210735 2.960155 1.634188 0
M  V30 41 H -2.542846 1.933696 0.196041 0
M  V30 42 H -4.569568 3.428143 0.173618 0
M  V30 43 H -3.795751 4.526706 1.411821 0
M  V30 44 H -3.525939 6.224923 -0.549014 0
M  V30 45 H -5.165651 6.067445 0.117838 0
M  V30 46 H -4.160901 3.867704 -3.170438 0
M  V30 47 H -4.819319 3.032776 -1.768862 0
M  V30 48 H -2.550770 2.647938 -1.836506 0
M  V30 49 H -2.154441 4.356173 -2.228221 0
M  V30 50 H 0.336346 -0.170759 0.526196 0
M  V30 51 H -0.393199 -5.222423 2.798403 0
M  V30 52 H -0.286279 -3.883870 1.642801 0
M  V30 53 H -1.063785 -6.229680 1.075273 0
M  V30 54 H -0.607050 -5.178975 -0.289242 0
M  V30 55 H 0.200780 -6.878465 -1.587561 0
M  V30 56 H -0.850918 -7.820714 -0.524217 0
M  V30 57 H 2.545086 -6.574893 -0.356824 0
M  V30 58 H 2.964018 -8.062781 0.648066 0
M  V30 59 H 2.378983 -6.366448 2.377022 0
M  V30 60 H 0.953541 -7.367509 2.112307 0
M  V30 END ATOM
M  V30 BEGIN BOND
M  V30 1 1 1 2
M  V30 2 1 2 3
M  V30 3 1 3 4
M  V30 4 1 4 5
M  V30 5 2 5 6
M  V30 6 1 6 7
M  V30 7 2 7 8
M  V30 8 1 8 9
M  V30 9 1 9 10
M  V30 10 1 10 11
M  V30 11 1 11 12
M  V30 12 1 12 13
M  V30 13 1 12 14
M  V30 14 1 14 15
M  V30 15 1 15 16
M  V30 16 1 16 17
M  V30 17 1 17 18
M  V30 18 1 18 19
M  V30 19 1 19 20
M  V30 20 2 9 21
M  V30 21 1 2 22
M  V30 22 1 22 23
M  V30 23 1 23 24
M  V30 24 1 24 25
M  V30 25 1 25 26
M  V30 26 1 26 27
M  V30 27 1 27 28
M  V30 28 1 21 5
M  V30 29 1 28 23
M  V30 30 1 20 15
M  V30 31 1 1 29
M  V30 32 1 2 30
M  V30 33 1 3 31
M  V30 34 1 3 32
M  V30 35 1 6 33
M  V30 36 1 7 34
M  V30 37 1 8 35
M  V30 38 1 11 36
M  V30 39 1 11 37
M  V30 40 1 12 38
M  V30 41 1 13 39
M  V30 42 1 14 40
M  V30 43 1 14 41
M  V30 44 1 16 42
M  V30 45 1 16 43
M  V30 46 1 17 44
M  V30 47 1 17 45
M  V30 48 1 19 46
M  V30 49 1 19 47
M  V30 50 1 20 48
M  V30 51 1 20 49
M  V30 52 1 21 50
M  V30 53 1 22 51
M  V30 54 1 22 52
M  V30 55 1 24 53
M  V30 56 1 24 54
M  V30 57 1 25 55
M  V30 58 1 25 56
M  V30 59 1 27 57
M  V30 60 1 27 58
M  V30 61 1 28 59
M  V30 62 1 28 60
M  V30 END BOND
M  V30 END CTAB
M  END
>  <Dataset>  (136) 
ChEMBL_Kinases

>  <Ligand_Instance>  (136) 
nan

>  <PDB_ID>  (136) 
nan

>  <Standardized_SMILES>  (136) 
OC(COc1cccc(OCC(O)CN2CCOCC2)c1)CN1CCOCC1

>  <Name>  (136) 
nan

>  <Pocket>  (136) 
nan

>  <ATP_Site>  (136) 
nan

>  <Peripheral>  (136) 
nan

>  <Num_H_Atoms_ProtBoundConf>  (136) 
nan

>  <Num_Resolved_Atoms>  (136) 
nan

>  <Num_Not_Resolved_Atoms>  (136) 
nan

$$$$
CHEMBL1573847
     RDKit          3D

  0  0  0  0  0  0  0  0  0  0999 V3000
M  V30 BEGIN CTAB
M  V30 COUNTS 47 49 0 0 0
M  V30 BEGIN ATOM
M  V30 1 C 2.286260 -3.804203 -1.538450 0
M  V30 2 C 2.231315 -2.529847 -0.758744 0
M  V30 3 C 2.379283 -2.488984 0.611260 0
M  V30 4 C 2.261312 -1.145091 0.894237 0
M  V30 5 C 2.051961 -0.413838 -0.255727 0
M  V30 6 C 1.850901 1.009595 -0.636830 0
M  V30 7 N 0.500865 1.446324 -0.723214 0
M  V30 8 C -0.585487 1.597580 0.192036 0
M  V30 9 C -1.061955 0.371389 0.838426 0
M  V30 10 C -0.720135 -0.200702 2.046315 0
M  V30 11 C -1.281356 -1.371402 2.489310 0
M  V30 12 C -2.226674 -2.054282 1.753274 0
M  V30 13 C -2.604428 -1.526213 0.538176 0
M  V30 14 C -2.023755 -0.348803 0.118773 0
M  V30 15 C 0.075825 1.841739 -2.057851 0
M  V30 16 S 0.271929 3.222133 -3.165710 0
M  V30 17 N -0.539861 1.660592 -3.159641 0
M  V30 18 C -1.296828 0.535186 -3.518709 0
M  V30 19 C -0.592684 -0.661967 -3.636263 0
M  V30 20 C -1.285883 -1.816972 -3.990120 0
M  V30 21 C -2.648042 -1.846012 -4.234586 0
M  V30 22 C -3.280509 -0.627294 -4.100137 0
M  V30 23 C -2.662239 0.533263 -3.758287 0
M  V30 24 C -3.389517 1.834949 -3.623753 0
M  V30 25 O 2.045427 -1.320984 -1.220748 0
M  V30 26 H 2.859710 -3.619369 -2.493108 0
M  V30 27 H 2.892489 -4.574395 -1.014185 0
M  V30 28 H 1.280568 -4.171636 -1.830955 0
M  V30 29 H 2.547366 -3.243187 1.367596 0
M  V30 30 H 2.303035 -0.579768 1.833882 0
M  V30 31 H 2.434721 1.671292 0.098191 0
M  V30 32 H 2.371373 1.227240 -1.593178 0
M  V30 33 H -1.482829 2.105797 -0.218977 0
M  V30 34 H -0.280075 2.293517 1.044063 0
M  V30 35 H 0.030064 0.381149 2.584521 0
M  V30 36 H -0.908364 -1.689132 3.454875 0
M  V30 37 H -2.606201 -2.962109 2.186403 0
M  V30 38 H -3.336958 -2.044233 -0.044987 0
M  V30 39 H -2.382537 0.000361 -0.860077 0
M  V30 40 H 0.994295 4.233460 -2.485026 0
M  V30 41 H 0.465399 -0.802305 -3.479148 0
M  V30 42 H -0.761814 -2.773571 -4.090811 0
M  V30 43 H -3.131924 -2.767929 -4.504868 0
M  V30 44 H -4.356884 -0.598655 -4.282928 0
M  V30 45 H -3.257167 2.278417 -2.614527 0
M  V30 46 H -3.010609 2.528888 -4.386053 0
M  V30 47 H -4.491216 1.645352 -3.734328 0
M  V30 END ATOM
M  V30 BEGIN BOND
M  V30 1 1 1 2
M  V30 2 2 2 3
M  V30 3 1 3 4
M  V30 4 2 4 5
M  V30 5 1 5 6
M  V30 6 1 6 7
M  V30 7 1 7 8
M  V30 8 1 8 9
M  V30 9 2 9 10
M  V30 10 1 10 11
M  V30 11 2 11 12
M  V30 12 1 12 13
M  V30 13 2 13 14
M  V30 14 1 7 15
M  V30 15 1 15 16
M  V30 16 2 15 17 CFG=2
M  V30 17 1 17 18
M  V30 18 2 18 19
M  V30 19 1 19 20
M  V30 20 2 20 21
M  V30 21 1 21 22
M  V30 22 2 22 23
M  V30 23 1 23 24
M  V30 24 1 5 25
M  V30 25 1 25 2
M  V30 26 1 14 9
M  V30 27 1 23 18
M  V30 28 1 1 26
M  V30 29 1 1 27
M  V30 30 1 1 28
M  V30 31 1 3 29
M  V30 32 1 4 30
M  V30 33 1 6 31
M  V30 34 1 6 32
M  V30 35 1 8 33
M  V30 36 1 8 34
M  V30 37 1 10 35
M  V30 38 1 11 36
M  V30 39 1 12 37
M  V30 40 1 13 38
M  V30 41 1 14 39
M  V30 42 1 16 40
M  V30 43 1 19 41
M  V30 44 1 20 42
M  V30 45 1 21 43
M  V30 46 1 22 44
M  V30 47 1 24 45
M  V30 48 1 24 46
M  V30 49 1 24 47
M  V30 END BOND
M  V30 END CTAB
M  END
>  <Dataset>  (137) 
ChEMBL_Kinases

>  <Ligand_Instance>  (137) 
nan

>  <PDB_ID>  (137) 
nan

>  <Standardized_SMILES>  (137) 
Cc1ccc(CN(Cc2ccccc2)C(S)=Nc2ccccc2C)o1

>  <Name>  (137) 
nan

>  <Pocket>  (137) 
nan

>  <ATP_Site>  (137) 
nan

>  <Peripheral>  (137) 
nan

>  <Num_H_Atoms_ProtBoundConf>  (137) 
nan

>  <Num_Resolved_Atoms>  (137) 
nan

>  <Num_Not_Resolved_Atoms>  (137) 
nan

$$$$
CHEMBL1573978
     RDKit          3D

  0  0  0  0  0  0  0  0  0  0999 V3000
M  V30 BEGIN CTAB
M  V30 COUNTS 30 32 0 0 0
M  V30 BEGIN ATOM
M  V30 1 C -1.093341 -4.900594 5.079118 0
M  V30 2 O -1.339131 -4.819797 3.669519 0
M  V30 3 C -0.909141 -3.717220 2.940037 0
M  V30 4 C -0.233841 -2.648565 3.497273 0
M  V30 5 C 0.165704 -1.579600 2.705301 0
M  V30 6 C -0.150129 -1.657764 1.361678 0
M  V30 7 C 0.272314 -0.523772 0.514480 0
M  V30 8 N 0.072230 -0.385982 -0.817466 0
M  V30 9 C 0.607256 0.791329 -1.225546 0
M  V30 10 C 0.684818 1.416497 -2.451936 0
M  V30 11 Br -0.050087 0.626762 -4.016115 0
M  V30 12 C 1.325377 2.634630 -2.449011 0
M  V30 13 N 1.439144 3.332200 -3.684590 0
M  V30 14 C 1.875398 3.251869 -1.345474 0
M  V30 15 Br 2.744698 4.946529 -1.448147 0
M  V30 16 C 1.782479 2.599719 -0.124858 0
M  V30 17 C 1.148021 1.373688 -0.077669 0
M  V30 18 O 0.917024 0.543342 0.925580 0
M  V30 19 C -0.822929 -2.704539 0.760457 0
M  V30 20 C -1.209001 -3.760866 1.585846 0
M  V30 21 H -0.027133 -5.093264 5.297015 0
M  V30 22 H -1.780816 -5.589705 5.574080 0
M  V30 23 H -1.330431 -3.887386 5.515611 0
M  V30 24 H -0.019493 -2.653146 4.557179 0
M  V30 25 H 0.696359 -0.726152 3.108040 0
M  V30 26 H 1.766628 4.319396 -3.771689 0
M  V30 27 H 1.217655 2.961534 -4.635127 0
M  V30 28 H 2.202273 3.060596 0.743686 0
M  V30 29 H -1.009484 -2.644384 -0.306301 0
M  V30 30 H -1.739546 -4.582494 1.101935 0
M  V30 END ATOM
M  V30 BEGIN BOND
M  V30 1 1 1 2
M  V30 2 1 2 3
M  V30 3 2 3 4
M  V30 4 1 4 5
M  V30 5 2 5 6
M  V30 6 1 6 7
M  V30 7 2 7 8
M  V30 8 1 8 9
M  V30 9 2 9 10
M  V30 10 1 10 11
M  V30 11 1 10 12
M  V30 12 1 12 13
M  V30 13 2 12 14
M  V30 14 1 14 15
M  V30 15 1 14 16
M  V30 16 2 16 17
M  V30 17 1 17 18
M  V30 18 1 6 19
M  V30 19 2 19 20
M  V30 20 1 20 3
M  V30 21 1 18 7
M  V30 22 1 17 9
M  V30 23 1 1 21
M  V30 24 1 1 22
M  V30 25 1 1 23
M  V30 26 1 4 24
M  V30 27 1 5 25
M  V30 28 1 13 26
M  V30 29 1 13 27
M  V30 30 1 16 28
M  V30 31 1 19 29
M  V30 32 1 20 30
M  V30 END BOND
M  V30 END CTAB
M  END
>  <Dataset>  (138) 
ChEMBL_Kinases

>  <Ligand_Instance>  (138) 
nan

>  <PDB_ID>  (138) 
nan

>  <Standardized_SMILES>  (138) 
COc1ccc(-c2nc3c(Br)c(N)c(Br)cc3o2)cc1

>  <Name>  (138) 
nan

>  <Pocket>  (138) 
nan

>  <ATP_Site>  (138) 
nan

>  <Peripheral>  (138) 
nan

>  <Num_H_Atoms_ProtBoundConf>  (138) 
nan

>  <Num_Resolved_Atoms>  (138) 
nan

>  <Num_Not_Resolved_Atoms>  (138) 
nan

$$$$
CHEMBL1575003
     RDKit          3D

  0  0  0  0  0  0  0  0  0  0999 V3000
M  V30 BEGIN CTAB
M  V30 COUNTS 45 48 0 0 0
M  V30 BEGIN ATOM
M  V30 1 C -0.595676 -3.270160 3.378713 0
M  V30 2 C -0.140562 -4.183675 2.240063 0
M  V30 3 N 0.662425 -3.454190 1.312608 0
M  V30 4 C 2.013929 -3.428423 1.508268 0
M  V30 5 O 2.509049 -4.050103 2.504987 0
M  V30 6 C 2.914752 -2.770279 0.698713 0
M  V30 7 C 2.473354 -2.072888 -0.400366 0
M  V30 8 S 3.416715 -1.167664 -1.584078 0
M  V30 9 C 3.702458 0.553206 -1.138895 0
M  V30 10 C 2.453200 1.358157 -1.084971 0
M  V30 11 O 1.857268 1.925488 -2.014156 0
M  V30 12 N 1.907856 1.460686 0.238023 0
M  V30 13 C 0.798754 2.057522 0.893381 0
M  V30 14 C 0.838057 3.342142 1.394872 0
M  V30 15 C -0.286607 3.850085 2.025061 0
M  V30 16 C -1.430256 3.063620 2.142420 0
M  V30 17 C -1.473217 1.770308 1.638784 0
M  V30 18 C -0.351242 1.270568 1.012783 0
M  V30 19 O -2.757106 1.263338 1.921648 0
M  V30 20 C -3.622612 2.404329 2.046081 0
M  V30 21 O -2.700856 3.281868 2.711999 0
M  V30 22 C 1.091643 -2.088820 -0.615507 0
M  V30 23 C 0.511505 -1.429316 -1.684321 0
M  V30 24 C -0.841352 -1.408453 -1.949709 0
M  V30 25 C -1.670481 -2.094486 -1.085930 0
M  V30 26 C -1.101740 -2.759818 -0.010310 0
M  V30 27 C 0.255341 -2.772258 0.242603 0
M  V30 28 H 0.166436 -3.120084 4.142751 0
M  V30 29 H -0.981467 -2.330881 2.928501 0
M  V30 30 H -1.473138 -3.792107 3.863586 0
M  V30 31 H -1.034500 -4.642364 1.817896 0
M  V30 32 H 0.512644 -4.953006 2.757270 0
M  V30 33 H 3.975871 -2.743995 0.843925 0
M  V30 34 H 4.375109 0.967311 -1.948759 0
M  V30 35 H 4.293073 0.659957 -0.197255 0
M  V30 36 H 2.347628 1.016386 1.083123 0
M  V30 37 H 1.738054 3.933582 1.292141 0
M  V30 38 H -0.275556 4.856336 2.424929 0
M  V30 39 H -0.385347 0.266190 0.623517 0
M  V30 40 H -4.515106 2.187422 2.627728 0
M  V30 41 H -3.782121 2.746894 1.009985 0
M  V30 42 H 1.159552 -0.886024 -2.374660 0
M  V30 43 H -1.194161 -0.856705 -2.821954 0
M  V30 44 H -2.712880 -2.064337 -1.311745 0
M  V30 45 H -1.819859 -3.268362 0.616404 0
M  V30 END ATOM
M  V30 BEGIN BOND
M  V30 1 1 1 2
M  V30 2 1 2 3
M  V30 3 1 3 4
M  V30 4 2 4 5
M  V30 5 1 4 6
M  V30 6 2 6 7
M  V30 7 1 7 8
M  V30 8 1 8 9
M  V30 9 1 9 10
M  V30 10 2 10 11
M  V30 11 1 10 12
M  V30 12 1 12 13
M  V30 13 2 13 14
M  V30 14 1 14 15
M  V30 15 2 15 16
M  V30 16 1 16 17
M  V30 17 2 17 18
M  V30 18 1 17 19
M  V30 19 1 19 20
M  V30 20 1 20 21
M  V30 21 1 7 22
M  V30 22 2 22 23
M  V30 23 1 23 24
M  V30 24 2 24 25
M  V30 25 1 25 26
M  V30 26 2 26 27
M  V30 27 1 27 3
M  V30 28 1 18 13
M  V30 29 1 27 22
M  V30 30 1 21 16
M  V30 31 1 1 28
M  V30 32 1 1 29
M  V30 33 1 1 30
M  V30 34 1 2 31
M  V30 35 1 2 32
M  V30 36 1 6 33
M  V30 37 1 9 34
M  V30 38 1 9 35
M  V30 39 1 12 36
M  V30 40 1 14 37
M  V30 41 1 15 38
M  V30 42 1 18 39
M  V30 43 1 20 40
M  V30 44 1 20 41
M  V30 45 1 23 42
M  V30 46 1 24 43
M  V30 47 1 25 44
M  V30 48 1 26 45
M  V30 END BOND
M  V30 END CTAB
M  END
>  <Dataset>  (139) 
ChEMBL_Kinases

>  <Ligand_Instance>  (139) 
nan

>  <PDB_ID>  (139) 
nan

>  <Standardized_SMILES>  (139) 
CCn1c(=O)cc(SCC(=O)Nc2ccc3c(c2)OCO3)c2ccccc21

>  <Name>  (139) 
nan

>  <Pocket>  (139) 
nan

>  <ATP_Site>  (139) 
nan

>  <Peripheral>  (139) 
nan

>  <Num_H_Atoms_ProtBoundConf>  (139) 
nan

>  <Num_Resolved_Atoms>  (139) 
nan

>  <Num_Not_Resolved_Atoms>  (139) 
nan

$$$$
CHEMBL1574073
     RDKit          3D

  0  0  0  0  0  0  0  0  0  0999 V3000
M  V30 BEGIN CTAB
M  V30 COUNTS 40 42 0 0 0
M  V30 BEGIN ATOM
M  V30 1 C -0.676852 -4.003431 1.700273 0
M  V30 2 O 0.212295 -3.307300 0.882442 0
M  V30 3 C 0.642449 -3.709746 -0.359951 0
M  V30 4 C 0.267817 -4.871601 -1.011004 0
M  V30 5 C 0.731859 -5.226106 -2.260370 0
M  V30 6 C 1.617850 -4.401532 -2.925065 0
M  V30 7 C 2.012454 -3.221930 -2.289888 0
M  V30 8 C 1.539958 -2.870163 -1.028443 0
M  V30 9 C 1.979029 -1.618057 -0.393432 0
M  V30 10 N 0.957649 -0.583023 -0.452690 0
M  V30 11 C 1.444711 0.591399 0.176598 0
M  V30 12 O 2.624498 0.552370 0.662732 0
M  V30 13 C 0.721250 1.848199 0.321768 0
M  V30 14 C 0.886295 2.765892 -0.677029 0
M  V30 15 S -0.197581 4.212096 -0.105598 0
M  V30 16 C -0.719390 3.401129 1.377096 0
M  V30 17 C -0.103945 2.187833 1.366794 0
M  V30 18 C -0.450951 1.379677 2.566377 0
M  V30 19 C -0.275671 2.275774 3.769499 0
M  V30 20 C -1.327035 3.358914 3.767710 0
M  V30 21 C -1.611863 3.900165 2.403518 0
M  V30 22 H -0.102441 -4.651738 2.399778 0
M  V30 23 H -1.339637 -4.630980 1.086286 0
M  V30 24 H -1.343308 -3.339983 2.290885 0
M  V30 25 H -0.424479 -5.524107 -0.500710 0
M  V30 26 H 0.390267 -6.158671 -2.708866 0
M  V30 27 H 1.956974 -4.707768 -3.891186 0
M  V30 28 H 2.711494 -2.588609 -2.833283 0
M  V30 29 H 2.280884 -1.757963 0.677562 0
M  V30 30 H 2.887241 -1.227923 -0.908812 0
M  V30 31 H -0.023042 -0.497312 -0.836974 0
M  V30 32 H 1.449203 2.781285 -1.588634 0
M  V30 33 H 0.122025 0.450000 2.672821 0
M  V30 34 H -1.546261 1.111350 2.549748 0
M  V30 35 H -0.411799 1.662118 4.681340 0
M  V30 36 H 0.732906 2.727758 3.799206 0
M  V30 37 H -0.973181 4.134501 4.482755 0
M  V30 38 H -2.250254 2.922069 4.216142 0
M  V30 39 H -1.486684 5.021072 2.476223 0
M  V30 40 H -2.701256 3.765898 2.150207 0
M  V30 END ATOM
M  V30 BEGIN BOND
M  V30 1 1 1 2
M  V30 2 1 2 3
M  V30 3 2 3 4
M  V30 4 1 4 5
M  V30 5 2 5 6
M  V30 6 1 6 7
M  V30 7 2 7 8
M  V30 8 1 8 9
M  V30 9 1 9 10
M  V30 10 1 10 11
M  V30 11 2 11 12
M  V30 12 1 11 13
M  V30 13 2 13 14
M  V30 14 1 14 15
M  V30 15 1 15 16
M  V30 16 2 16 17
M  V30 17 1 17 18
M  V30 18 1 18 19
M  V30 19 1 19 20
M  V30 20 1 20 21
M  V30 21 1 8 3
M  V30 22 1 17 13
M  V30 23 1 21 16
M  V30 24 1 1 22
M  V30 25 1 1 23
M  V30 26 1 1 24
M  V30 27 1 4 25
M  V30 28 1 5 26
M  V30 29 1 6 27
M  V30 30 1 7 28
M  V30 31 1 9 29
M  V30 32 1 9 30
M  V30 33 1 10 31
M  V30 34 1 14 32
M  V30 35 1 18 33
M  V30 36 1 18 34
M  V30 37 1 19 35
M  V30 38 1 19 36
M  V30 39 1 20 37
M  V30 40 1 20 38
M  V30 41 1 21 39
M  V30 42 1 21 40
M  V30 END BOND
M  V30 END CTAB
M  END
>  <Dataset>  (140) 
ChEMBL_Kinases

>  <Ligand_Instance>  (140) 
nan

>  <PDB_ID>  (140) 
nan

>  <Standardized_SMILES>  (140) 
COc1ccccc1CNC(=O)c1csc2c1CCCC2

>  <Name>  (140) 
nan

>  <Pocket>  (140) 
nan

>  <ATP_Site>  (140) 
nan

>  <Peripheral>  (140) 
nan

>  <Num_H_Atoms_ProtBoundConf>  (140) 
nan

>  <Num_Resolved_Atoms>  (140) 
nan

>  <Num_Not_Resolved_Atoms>  (140) 
nan

$$$$
CHEMBL1574151
     RDKit          3D

  0  0  0  0  0  0  0  0  0  0999 V3000
M  V30 BEGIN CTAB
M  V30 COUNTS 43 43 0 0 0
M  V30 BEGIN ATOM
M  V30 1 C -2.300830 -0.449477 4.406611 0
M  V30 2 C -1.688360 -1.727826 3.867271 0
M  V30 3 C -2.107694 -1.790072 2.399135 0
M  V30 4 C -1.524014 -3.034161 1.835629 0
M  V30 5 C -1.788657 -3.327427 0.413334 0
M  V30 6 C -1.333452 -2.351471 -0.602438 0
M  V30 7 N -1.861983 -1.034529 -0.514789 0
M  V30 8 S -1.283153 0.044624 -1.733966 0
M  V30 9 O -1.722176 -0.388269 -3.100511 0
M  V30 10 O -1.923152 1.392683 -1.445373 0
M  V30 11 C 0.447249 0.269664 -1.654067 0
M  V30 12 C 1.309420 -0.562001 -2.375362 0
M  V30 13 C 2.696396 -0.382662 -2.312706 0
M  V30 14 C 3.151656 0.644908 -1.511273 0
M  V30 15 O 4.504958 0.829109 -1.442764 0
M  V30 16 C 5.448321 0.036234 -2.137508 0
M  V30 17 C 2.328604 1.481759 -0.788008 0
M  V30 18 O 2.916429 2.485283 -0.013519 0
M  V30 19 C 2.115459 3.377797 0.753494 0
M  V30 20 C 0.964298 1.295623 -0.857516 0
M  V30 21 H -2.331674 -0.508602 5.524507 0
M  V30 22 H -3.311051 -0.263056 3.990458 0
M  V30 23 H -1.676345 0.433289 4.159969 0
M  V30 24 H -1.972221 -2.614765 4.430530 0
M  V30 25 H -0.594240 -1.582607 3.883015 0
M  V30 26 H -1.601804 -0.905652 1.965931 0
M  V30 27 H -3.198328 -1.721080 2.404885 0
M  V30 28 H -1.884893 -3.860624 2.484470 0
M  V30 29 H -0.427464 -2.980631 2.051898 0
M  V30 30 H -1.311488 -4.303836 0.179322 0
M  V30 31 H -2.877799 -3.505037 0.277822 0
M  V30 32 H -0.225626 -2.249874 -0.621046 0
M  V30 33 H -1.584613 -2.708577 -1.624568 0
M  V30 34 H -2.904544 -0.975184 -0.548199 0
M  V30 35 H 0.912260 -1.358837 -2.994258 0
M  V30 36 H 3.394837 -1.007575 -2.857833 0
M  V30 37 H 5.357753 -1.006617 -1.767830 0
M  V30 38 H 6.481964 0.367410 -1.963194 0
M  V30 39 H 5.276341 0.036966 -3.227923 0
M  V30 40 H 2.687028 4.295551 0.999313 0
M  V30 41 H 1.759915 2.882997 1.684699 0
M  V30 42 H 1.208159 3.694627 0.217138 0
M  V30 43 H 0.300059 1.935852 -0.302222 0
M  V30 END ATOM
M  V30 BEGIN BOND
M  V30 1 1 1 2
M  V30 2 1 2 3
M  V30 3 1 3 4
M  V30 4 1 4 5
M  V30 5 1 5 6
M  V30 6 1 6 7
M  V30 7 1 7 8
M  V30 8 2 8 9
M  V30 9 2 8 10
M  V30 10 1 8 11
M  V30 11 2 11 12
M  V30 12 1 12 13
M  V30 13 2 13 14
M  V30 14 1 14 15
M  V30 15 1 15 16
M  V30 16 1 14 17
M  V30 17 1 17 18
M  V30 18 1 18 19
M  V30 19 2 17 20
M  V30 20 1 20 11
M  V30 21 1 1 21
M  V30 22 1 1 22
M  V30 23 1 1 23
M  V30 24 1 2 24
M  V30 25 1 2 25
M  V30 26 1 3 26
M  V30 27 1 3 27
M  V30 28 1 4 28
M  V30 29 1 4 29
M  V30 30 1 5 30
M  V30 31 1 5 31
M  V30 32 1 6 32
M  V30 33 1 6 33
M  V30 34 1 7 34
M  V30 35 1 12 35
M  V30 36 1 13 36
M  V30 37 1 16 37
M  V30 38 1 16 38
M  V30 39 1 16 39
M  V30 40 1 19 40
M  V30 41 1 19 41
M  V30 42 1 19 42
M  V30 43 1 20 43
M  V30 END BOND
M  V30 END CTAB
M  END
>  <Dataset>  (141) 
ChEMBL_Kinases

>  <Ligand_Instance>  (141) 
nan

>  <PDB_ID>  (141) 
nan

>  <Standardized_SMILES>  (141) 
CCCCCCNS(=O)(=O)c1ccc(OC)c(OC)c1

>  <Name>  (141) 
nan

>  <Pocket>  (141) 
nan

>  <ATP_Site>  (141) 
nan

>  <Peripheral>  (141) 
nan

>  <Num_H_Atoms_ProtBoundConf>  (141) 
nan

>  <Num_Resolved_Atoms>  (141) 
nan

>  <Num_Not_Resolved_Atoms>  (141) 
nan

$$$$
CHEMBL1574475
     RDKit          3D

  0  0  0  0  0  0  0  0  0  0999 V3000
M  V30 BEGIN CTAB
M  V30 COUNTS 47 48 0 0 0
M  V30 BEGIN ATOM
M  V30 1 C -0.824375 -3.896215 0.509457 0
M  V30 2 C -0.019790 -3.557919 1.735214 0
M  V30 3 C -0.673943 -4.120998 2.979603 0
M  V30 4 C 0.152209 -2.053403 1.925165 0
M  V30 5 N 0.824678 -1.448344 0.814481 0
M  V30 6 C 2.058795 -0.750642 0.820117 0
M  V30 7 O 2.624240 -0.660532 1.959615 0
M  V30 8 C 2.636101 -0.175274 -0.410389 0
M  V30 9 C 1.759165 0.844817 -1.064500 0
M  V30 10 C 2.641194 1.968688 -1.570106 0
M  V30 11 C 3.168955 2.747558 -0.383985 0
M  V30 12 C 3.830596 1.795606 0.570927 0
M  V30 13 C 3.984023 0.419670 -0.032865 0
M  V30 14 C -1.190931 -1.473050 2.125962 0
M  V30 15 O -2.151135 -1.661090 2.949549 0
M  V30 16 N -1.626093 -0.430608 1.227338 0
M  V30 17 C -2.915433 0.161010 1.381176 0
M  V30 18 C -3.996109 -0.380591 0.724060 0
M  V30 19 C -5.265714 0.145586 0.832835 0
M  V30 20 N -5.447221 1.235712 1.617358 0
M  V30 21 C -4.414081 1.793216 2.275673 0
M  V30 22 C -3.137441 1.255097 2.159452 0
M  V30 23 H -1.034404 -3.043160 -0.150488 0
M  V30 24 H -1.768016 -4.427266 0.796830 0
M  V30 25 H -0.290920 -4.642512 -0.144691 0
M  V30 26 H 0.956200 -4.066491 1.644031 0
M  V30 27 H -0.412762 -5.197238 3.033549 0
M  V30 28 H -0.244055 -3.624121 3.883862 0
M  V30 29 H -1.771343 -3.966889 3.000362 0
M  V30 30 H 0.702622 -1.935848 2.887163 0
M  V30 31 H 0.344961 -1.533595 -0.108720 0
M  V30 32 H 2.785474 -0.990383 -1.152461 0
M  V30 33 H 1.248856 0.448018 -1.987222 0
M  V30 34 H 1.016500 1.308920 -0.394569 0
M  V30 35 H 2.023336 2.703423 -2.164559 0
M  V30 36 H 3.449950 1.622866 -2.229657 0
M  V30 37 H 3.897677 3.508443 -0.670648 0
M  V30 38 H 2.311019 3.239857 0.120067 0
M  V30 39 H 4.856195 2.130972 0.845573 0
M  V30 40 H 3.267083 1.703476 1.542602 0
M  V30 41 H 4.489823 -0.202991 0.734734 0
M  V30 42 H 4.628893 0.494147 -0.922813 0
M  V30 43 H -1.041891 -0.048837 0.424691 0
M  V30 44 H -3.900678 -1.250218 0.086945 0
M  V30 45 H -6.094656 -0.292731 0.311448 0
M  V30 46 H -4.542550 2.666756 2.908204 0
M  V30 47 H -2.304919 1.692834 2.681226 0
M  V30 END ATOM
M  V30 BEGIN BOND
M  V30 1 1 1 2
M  V30 2 1 2 3
M  V30 3 1 2 4
M  V30 4 1 4 5
M  V30 5 1 5 6
M  V30 6 2 6 7
M  V30 7 1 6 8
M  V30 8 1 8 9
M  V30 9 1 9 10
M  V30 10 1 10 11
M  V30 11 1 11 12
M  V30 12 1 12 13
M  V30 13 1 4 14
M  V30 14 2 14 15
M  V30 15 1 14 16
M  V30 16 1 16 17
M  V30 17 2 17 18
M  V30 18 1 18 19
M  V30 19 2 19 20
M  V30 20 1 20 21
M  V30 21 2 21 22
M  V30 22 1 13 8
M  V30 23 1 22 17
M  V30 24 1 1 23
M  V30 25 1 1 24
M  V30 26 1 1 25
M  V30 27 1 2 26
M  V30 28 1 3 27
M  V30 29 1 3 28
M  V30 30 1 3 29
M  V30 31 1 4 30
M  V30 32 1 5 31
M  V30 33 1 8 32
M  V30 34 1 9 33
M  V30 35 1 9 34
M  V30 36 1 10 35
M  V30 37 1 10 36
M  V30 38 1 11 37
M  V30 39 1 11 38
M  V30 40 1 12 39
M  V30 41 1 12 40
M  V30 42 1 13 41
M  V30 43 1 13 42
M  V30 44 1 16 43
M  V30 45 1 18 44
M  V30 46 1 19 45
M  V30 47 1 21 46
M  V30 48 1 22 47
M  V30 END BOND
M  V30 END CTAB
M  END
>  <Dataset>  (142) 
ChEMBL_Kinases

>  <Ligand_Instance>  (142) 
nan

>  <PDB_ID>  (142) 
nan

>  <Standardized_SMILES>  (142) 
CC(C)C(NC(=O)C1CCCCC1)C(=O)Nc1ccncc1

>  <Name>  (142) 
nan

>  <Pocket>  (142) 
nan

>  <ATP_Site>  (142) 
nan

>  <Peripheral>  (142) 
nan

>  <Num_H_Atoms_ProtBoundConf>  (142) 
nan

>  <Num_Resolved_Atoms>  (142) 
nan

>  <Num_Not_Resolved_Atoms>  (142) 
nan

$$$$
CHEMBL1574487
     RDKit          3D

  0  0  0  0  0  0  0  0  0  0999 V3000
M  V30 BEGIN CTAB
M  V30 COUNTS 46 48 0 0 0
M  V30 BEGIN ATOM
M  V30 1 C 1.103410 -3.841426 3.963829 0
M  V30 2 O 0.527876 -3.351182 2.746813 0
M  V30 3 C 1.182776 -2.390884 2.043335 0
M  V30 4 O 2.140054 -2.323548 2.853514 0
M  V30 5 C 1.058684 -1.607538 0.849239 0
M  V30 6 C 2.072319 -0.709928 0.598151 0
M  V30 7 C 1.920884 0.048719 -0.568441 0
M  V30 8 N 2.938727 0.991548 -0.876354 0
M  V30 9 S 2.488132 2.593228 -1.390091 0
M  V30 10 O 3.737393 3.388787 -1.675524 0
M  V30 11 O 1.725341 2.559061 -2.684296 0
M  V30 12 C 1.588025 3.352976 -0.099061 0
M  V30 13 C 0.210744 3.269914 0.029110 0
M  V30 14 C -0.451696 3.892519 1.072653 0
M  V30 15 C 0.290367 4.607792 1.997394 0
M  V30 16 C 1.672066 4.709567 1.896194 0
M  V30 17 Cl 2.656349 5.600832 3.037532 0
M  V30 18 C 2.294687 4.074262 0.840994 0
M  V30 19 C 0.835617 -0.079456 -1.422814 0
M  V30 20 C -0.162263 -1.010719 -1.111807 0
M  V30 21 C -0.042022 -1.784025 0.044720 0
M  V30 22 N -1.103710 -2.702083 0.256902 0
M  V30 23 C -1.246937 -4.159157 0.326427 0
M  V30 24 C -2.217288 -4.586651 1.367436 0
M  V30 25 O -3.344568 -3.783510 1.450764 0
M  V30 26 C -3.470200 -2.939148 0.348144 0
M  V30 27 C -2.346331 -1.937697 0.449828 0
M  V30 28 H 2.127965 -4.263128 3.774913 0
M  V30 29 H 1.191019 -3.004213 4.656295 0
M  V30 30 H 0.458801 -4.661309 4.326473 0
M  V30 31 H 2.913000 -0.605406 1.252794 0
M  V30 32 H 3.953172 0.692337 -0.784433 0
M  V30 33 H -0.341651 2.707666 -0.703470 0
M  V30 34 H -1.528765 3.834860 1.183808 0
M  V30 35 H -0.133495 5.123102 2.838611 0
M  V30 36 H 3.378658 4.149347 0.754617 0
M  V30 37 H 0.706931 0.489357 -2.311502 0
M  V30 38 H -1.004900 -1.107802 -1.778326 0
M  V30 39 H -0.281116 -4.671384 0.500354 0
M  V30 40 H -1.568309 -4.514119 -0.686430 0
M  V30 41 H -1.805507 -4.730095 2.362028 0
M  V30 42 H -2.600281 -5.597646 1.048385 0
M  V30 43 H -4.461779 -2.477010 0.369926 0
M  V30 44 H -3.383034 -3.586399 -0.554568 0
M  V30 45 H -2.340296 -1.611543 1.527650 0
M  V30 46 H -2.450553 -1.095335 -0.233815 0
M  V30 END ATOM
M  V30 BEGIN BOND
M  V30 1 1 1 2
M  V30 2 1 2 3
M  V30 3 2 3 4
M  V30 4 1 3 5
M  V30 5 2 5 6
M  V30 6 1 6 7
M  V30 7 1 7 8
M  V30 8 1 8 9
M  V30 9 2 9 10
M  V30 10 2 9 11
M  V30 11 1 9 12
M  V30 12 2 12 13
M  V30 13 1 13 14
M  V30 14 2 14 15
M  V30 15 1 15 16
M  V30 16 1 16 17
M  V30 17 2 16 18
M  V30 18 2 7 19
M  V30 19 1 19 20
M  V30 20 2 20 21
M  V30 21 1 21 22
M  V30 22 1 22 23
M  V30 23 1 23 24
M  V30 24 1 24 25
M  V30 25 1 25 26
M  V30 26 1 26 27
M  V30 27 1 21 5
M  V30 28 1 27 22
M  V30 29 1 18 12
M  V30 30 1 1 28
M  V30 31 1 1 29
M  V30 32 1 1 30
M  V30 33 1 6 31
M  V30 34 1 8 32
M  V30 35 1 13 33
M  V30 36 1 14 34
M  V30 37 1 15 35
M  V30 38 1 18 36
M  V30 39 1 19 37
M  V30 40 1 20 38
M  V30 41 1 23 39
M  V30 42 1 23 40
M  V30 43 1 24 41
M  V30 44 1 24 42
M  V30 45 1 26 43
M  V30 46 1 26 44
M  V30 47 1 27 45
M  V30 48 1 27 46
M  V30 END BOND
M  V30 END CTAB
M  END
>  <Dataset>  (143) 
ChEMBL_Kinases

>  <Ligand_Instance>  (143) 
nan

>  <PDB_ID>  (143) 
nan

>  <Standardized_SMILES>  (143) 
COC(=O)c1cc(NS(=O)(=O)c2cccc(Cl)c2)ccc1N1CCOCC1

>  <Name>  (143) 
nan

>  <Pocket>  (143) 
nan

>  <ATP_Site>  (143) 
nan

>  <Peripheral>  (143) 
nan

>  <Num_H_Atoms_ProtBoundConf>  (143) 
nan

>  <Num_Resolved_Atoms>  (143) 
nan

>  <Num_Not_Resolved_Atoms>  (143) 
nan

$$$$
CHEMBL1574529
     RDKit          3D

  0  0  0  0  0  0  0  0  0  0999 V3000
M  V30 BEGIN CTAB
M  V30 COUNTS 52 54 0 0 0
M  V30 BEGIN ATOM
M  V30 1 C 1.794895 -1.452240 3.608305 0
M  V30 2 C 3.205908 -1.961364 3.528856 0
M  V30 3 N 4.127381 -0.843458 3.529302 0
M  V30 4 C 5.312653 -1.250813 4.216333 0
M  V30 5 C 6.004984 -0.137976 4.964674 0
M  V30 6 S 4.463842 -0.325032 1.916570 0
M  V30 7 O 5.476797 0.774105 1.946925 0
M  V30 8 O 4.956620 -1.532277 1.178424 0
M  V30 9 C 2.981449 0.210463 1.158206 0
M  V30 10 C 2.518927 1.530683 1.221080 0
M  V30 11 C 1.336870 1.856036 0.588922 0
M  V30 12 C 0.584925 0.933007 -0.107044 0
M  V30 13 O -0.558444 0.999545 -0.782925 0
M  V30 14 C -0.857420 -0.191986 -1.274036 0
M  V30 15 C -2.038106 -0.505789 -2.071207 0
M  V30 16 O -2.244298 -1.671943 -2.512486 0
M  V30 17 N -3.014625 0.466062 -2.395837 0
M  V30 18 C -4.220661 0.355726 -3.152126 0
M  V30 19 C -5.257929 -0.308586 -2.314892 0
M  V30 20 C -6.062600 0.464826 -1.501921 0
M  V30 21 C -7.048590 -0.100728 -0.702276 0
M  V30 22 C -7.263166 -1.461401 -0.688891 0
M  V30 23 F -8.194588 -2.116981 0.050995 0
M  V30 24 C -6.458240 -2.230069 -1.501527 0
M  V30 25 C -5.466422 -1.669684 -2.307106 0
M  V30 26 C 0.111668 -1.110729 -0.925418 0
M  V30 27 C 0.181280 -2.527387 -1.250890 0
M  V30 28 C 1.032860 -0.381570 -0.177296 0
M  V30 29 C 2.214181 -0.724378 0.449838 0
M  V30 30 H 1.481024 -1.508579 4.689226 0
M  V30 31 H 1.795902 -0.372545 3.291049 0
M  V30 32 H 1.076799 -2.049936 3.005678 0
M  V30 33 H 3.346304 -2.581283 2.599055 0
M  V30 34 H 3.386815 -2.656829 4.384173 0
M  V30 35 H 5.140560 -2.088394 4.935376 0
M  V30 36 H 6.047862 -1.633328 3.456962 0
M  V30 37 H 6.474300 -0.546282 5.901216 0
M  V30 38 H 6.792628 0.370619 4.388497 0
M  V30 39 H 5.266001 0.625038 5.341146 0
M  V30 40 H 3.125976 2.248405 1.775237 0
M  V30 41 H 0.996169 2.879706 0.648414 0
M  V30 42 H -2.801142 1.432328 -2.005990 0
M  V30 43 H -4.024754 -0.242503 -4.071654 0
M  V30 44 H -4.641284 1.334097 -3.453841 0
M  V30 45 H -5.968584 1.548847 -1.444004 0
M  V30 46 H -7.708281 0.464313 -0.044920 0
M  V30 47 H -6.586030 -3.305153 -1.527821 0
M  V30 48 H -4.864421 -2.316986 -2.928329 0
M  V30 49 H 1.276167 -2.803043 -1.329704 0
M  V30 50 H -0.180437 -3.207589 -0.437387 0
M  V30 51 H -0.215548 -2.806299 -2.250445 0
M  V30 52 H 2.528165 -1.767207 0.369197 0
M  V30 END ATOM
M  V30 BEGIN BOND
M  V30 1 1 1 2
M  V30 2 1 2 3
M  V30 3 1 3 4
M  V30 4 1 4 5
M  V30 5 1 3 6
M  V30 6 2 6 7
M  V30 7 2 6 8
M  V30 8 1 6 9
M  V30 9 2 9 10
M  V30 10 1 10 11
M  V30 11 2 11 12
M  V30 12 1 12 13
M  V30 13 1 13 14
M  V30 14 1 14 15
M  V30 15 2 15 16
M  V30 16 1 15 17
M  V30 17 1 17 18
M  V30 18 1 18 19
M  V30 19 2 19 20
M  V30 20 1 20 21
M  V30 21 2 21 22
M  V30 22 1 22 23
M  V30 23 1 22 24
M  V30 24 2 24 25
M  V30 25 2 14 26
M  V30 26 1 26 27
M  V30 27 1 26 28
M  V30 28 2 28 29
M  V30 29 1 29 9
M  V30 30 1 28 12
M  V30 31 1 25 19
M  V30 32 1 1 30
M  V30 33 1 1 31
M  V30 34 1 1 32
M  V30 35 1 2 33
M  V30 36 1 2 34
M  V30 37 1 4 35
M  V30 38 1 4 36
M  V30 39 1 5 37
M  V30 40 1 5 38
M  V30 41 1 5 39
M  V30 42 1 10 40
M  V30 43 1 11 41
M  V30 44 1 17 42
M  V30 45 1 18 43
M  V30 46 1 18 44
M  V30 47 1 20 45
M  V30 48 1 21 46
M  V30 49 1 24 47
M  V30 50 1 25 48
M  V30 51 1 27 49
M  V30 52 1 27 50
M  V30 53 1 27 51
M  V30 54 1 29 52
M  V30 END BOND
M  V30 END CTAB
M  END
>  <Dataset>  (144) 
ChEMBL_Kinases

>  <Ligand_Instance>  (144) 
nan

>  <PDB_ID>  (144) 
nan

>  <Standardized_SMILES>  (144) 
CCN(CC)S(=O)(=O)c1ccc2oc(C(=O)NCc3ccc(F)cc3)c(C)c2c1

>  <Name>  (144) 
nan

>  <Pocket>  (144) 
nan

>  <ATP_Site>  (144) 
nan

>  <Peripheral>  (144) 
nan

>  <Num_H_Atoms_ProtBoundConf>  (144) 
nan

>  <Num_Resolved_Atoms>  (144) 
nan

>  <Num_Not_Resolved_Atoms>  (144) 
nan

$$$$
CHEMBL1574553
     RDKit          3D

  0  0  0  0  0  0  0  0  0  0999 V3000
M  V30 BEGIN CTAB
M  V30 COUNTS 29 31 0 0 0
M  V30 BEGIN ATOM
M  V30 1 Br -1.462076 -4.858086 2.953918 0
M  V30 2 C -0.186152 -3.470613 2.909921 0
M  V30 3 C -0.454057 -2.178701 3.279459 0
M  V30 4 C 0.497816 -1.178064 3.238793 0
M  V30 5 C 1.789254 -1.451331 2.812481 0
M  V30 6 N 2.742843 -0.414956 2.779463 0
M  V30 7 N 2.861021 0.427753 1.846977 0
M  V30 8 C 2.012607 0.418786 0.689525 0
M  V30 9 C 2.373193 0.059605 -0.594292 0
M  V30 10 C 1.384338 0.128695 -1.554237 0
M  V30 11 C 0.109876 0.539058 -1.219556 0
M  V30 12 C -0.874236 0.602321 -2.201782 0
M  V30 13 C -2.146449 1.018711 -1.834666 0
M  V30 14 C -2.490990 1.372087 -0.558187 0
M  V30 15 C -1.508969 1.312201 0.437812 0
M  V30 16 C -0.228712 0.893748 0.071166 0
M  V30 17 N 0.747165 0.821494 0.998597 0
M  V30 18 C 2.038360 -2.763136 2.443716 0
M  V30 19 C 1.100415 -3.759054 2.481529 0
M  V30 20 H -1.474699 -1.977862 3.612934 0
M  V30 21 H 0.163282 -0.187781 3.558479 0
M  V30 22 H 3.385471 -0.238594 -0.724390 0
M  V30 23 H 1.660644 -0.151131 -2.560458 0
M  V30 24 H -0.668057 0.339287 -3.217948 0
M  V30 25 H -2.971580 1.097769 -2.530930 0
M  V30 26 H -3.453706 1.694542 -0.244345 0
M  V30 27 H -1.677739 1.573279 1.493453 0
M  V30 28 H 3.043299 -2.978745 2.111303 0
M  V30 29 H 1.410737 -4.743684 2.169961 0
M  V30 END ATOM
M  V30 BEGIN BOND
M  V30 1 1 1 2
M  V30 2 2 2 3
M  V30 3 1 3 4
M  V30 4 2 4 5
M  V30 5 1 5 6
M  V30 6 2 6 7 CFG=2
M  V30 7 1 7 8
M  V30 8 2 8 9
M  V30 9 1 9 10
M  V30 10 2 10 11
M  V30 11 1 11 12
M  V30 12 2 12 13
M  V30 13 1 13 14
M  V30 14 2 14 15
M  V30 15 1 15 16
M  V30 16 2 16 17
M  V30 17 1 5 18
M  V30 18 2 18 19
M  V30 19 1 19 2
M  V30 20 1 17 8
M  V30 21 1 16 11
M  V30 22 1 3 20
M  V30 23 1 4 21
M  V30 24 1 9 22
M  V30 25 1 10 23
M  V30 26 1 12 24
M  V30 27 1 13 25
M  V30 28 1 14 26
M  V30 29 1 15 27
M  V30 30 1 18 28
M  V30 31 1 19 29
M  V30 END BOND
M  V30 END CTAB
M  END
>  <Dataset>  (145) 
ChEMBL_Kinases

>  <Ligand_Instance>  (145) 
nan

>  <PDB_ID>  (145) 
nan

>  <Standardized_SMILES>  (145) 
Brc1ccc(N=Nc2ccc3ccccc3n2)cc1

>  <Name>  (145) 
nan

>  <Pocket>  (145) 
nan

>  <ATP_Site>  (145) 
nan

>  <Peripheral>  (145) 
nan

>  <Num_H_Atoms_ProtBoundConf>  (145) 
nan

>  <Num_Resolved_Atoms>  (145) 
nan

>  <Num_Not_Resolved_Atoms>  (145) 
nan

$$$$
CHEMBL1574764
     RDKit          3D

  0  0  0  0  0  0  0  0  0  0999 V3000
M  V30 BEGIN CTAB
M  V30 COUNTS 52 56 0 0 0
M  V30 BEGIN ATOM
M  V30 1 C 2.757753 -0.727863 5.197311 0
M  V30 2 N 2.779382 -0.508134 3.762233 0
M  V30 3 C 4.089711 -0.575028 3.202619 0
M  V30 4 O 5.167993 -0.795861 3.810708 0
M  V30 5 C 4.487409 -0.400010 1.773859 0
M  V30 6 O 3.295746 -0.148121 1.052819 0
M  V30 7 C 3.266472 0.067976 -0.317072 0
M  V30 8 C 2.115070 0.320258 -1.071042 0
M  V30 9 C 2.261148 0.515348 -2.438206 0
M  V30 10 C 3.468017 0.473066 -3.078901 0
M  V30 11 C 4.610562 0.226088 -2.352430 0
M  V30 12 C 4.456866 0.032815 -0.991208 0
M  V30 13 C 1.575916 -0.255968 3.044899 0
M  V30 14 N 0.924794 0.652876 2.720713 0
M  V30 15 N -0.176362 0.605705 2.041376 0
M  V30 16 C -0.708859 -0.363426 1.634554 0
M  V30 17 C -1.901970 -0.752714 0.870458 0
M  V30 18 C -1.985687 -2.264902 0.694188 0
M  V30 19 C -3.264996 -2.644883 0.026584 0
M  V30 20 C -4.408792 -2.082973 0.831555 0
M  V30 21 C -4.375046 -0.568260 0.818851 0
M  V30 22 C -4.379211 -0.123686 -0.623282 0
M  V30 23 C -3.109431 -0.585556 -1.261841 0
M  V30 24 C -3.202175 -2.095094 -1.381771 0
M  V30 25 C -1.867966 -0.190237 -0.527815 0
M  V30 26 C -3.114282 -0.177353 1.558050 0
M  V30 27 S 0.531390 -1.656894 2.288273 0
M  V30 28 H 3.684055 -0.359449 5.699091 0
M  V30 29 H 1.865263 -0.288360 5.654273 0
M  V30 30 H 2.697384 -1.836100 5.375171 0
M  V30 31 H 5.182711 0.426714 1.646536 0
M  V30 32 H 4.959656 -1.333971 1.392210 0
M  V30 33 H 1.180499 0.345662 -0.527499 0
M  V30 34 H 1.346541 0.711855 -3.012234 0
M  V30 35 H 3.544160 0.630407 -4.149970 0
M  V30 36 H 5.572076 0.186529 -2.824931 0
M  V30 37 H 5.383364 -0.159217 -0.455372 0
M  V30 38 H -1.163001 -2.514891 -0.037811 0
M  V30 39 H -1.762610 -2.819449 1.622277 0
M  V30 40 H -3.339910 -3.754868 0.044356 0
M  V30 41 H -5.380119 -2.484211 0.503040 0
M  V30 42 H -4.184115 -2.358652 1.902562 0
M  V30 43 H -5.220570 -0.159970 1.376700 0
M  V30 44 H -4.606783 0.932724 -0.781091 0
M  V30 45 H -5.214625 -0.709826 -1.106291 0
M  V30 46 H -3.107488 -0.199804 -2.301906 0
M  V30 47 H -2.248129 -2.460136 -1.808148 0
M  V30 48 H -4.047634 -2.413144 -1.986325 0
M  V30 49 H -1.002754 -0.562747 -1.105498 0
M  V30 50 H -1.821335 0.915700 -0.471942 0
M  V30 51 H -3.223279 -0.529995 2.583537 0
M  V30 52 H -3.022468 0.921491 1.467467 0
M  V30 END ATOM
M  V30 BEGIN BOND
M  V30 1 1 1 2
M  V30 2 1 2 3
M  V30 3 2 3 4
M  V30 4 1 3 5
M  V30 5 1 5 6
M  V30 6 1 6 7
M  V30 7 2 7 8
M  V30 8 1 8 9
M  V30 9 2 9 10
M  V30 10 1 10 11
M  V30 11 2 11 12
M  V30 12 1 2 13
M  V30 13 2 13 14
M  V30 14 1 14 15
M  V30 15 2 15 16
M  V30 16 1 16 17
M  V30 17 1 17 18
M  V30 18 1 18 19
M  V30 19 1 19 20
M  V30 20 1 20 21
M  V30 21 1 21 22
M  V30 22 1 22 23
M  V30 23 1 23 24
M  V30 24 1 23 25
M  V30 25 1 21 26
M  V30 26 1 16 27
M  V30 27 1 12 7
M  V30 28 1 27 13
M  V30 29 1 25 17
M  V30 30 1 26 17
M  V30 31 1 24 19
M  V30 32 1 1 28
M  V30 33 1 1 29
M  V30 34 1 1 30
M  V30 35 1 5 31
M  V30 36 1 5 32
M  V30 37 1 8 33
M  V30 38 1 9 34
M  V30 39 1 10 35
M  V30 40 1 11 36
M  V30 41 1 12 37
M  V30 42 1 18 38
M  V30 43 1 18 39
M  V30 44 1 19 40
M  V30 45 1 20 41
M  V30 46 1 20 42
M  V30 47 1 21 43
M  V30 48 1 22 44
M  V30 49 1 22 45
M  V30 50 1 23 46
M  V30 51 1 24 47
M  V30 52 1 24 48
M  V30 53 1 25 49
M  V30 54 1 25 50
M  V30 55 1 26 51
M  V30 56 1 26 52
M  V30 END BOND
M  V30 END CTAB
M  END
>  <Dataset>  (146) 
ChEMBL_Kinases

>  <Ligand_Instance>  (146) 
nan

>  <PDB_ID>  (146) 
nan

>  <Standardized_SMILES>  (146) 
CN(C(=O)COc1ccccc1)c1nnc(C23CC4CC(CC(C4)C2)C3)s1

>  <Name>  (146) 
nan

>  <Pocket>  (146) 
nan

>  <ATP_Site>  (146) 
nan

>  <Peripheral>  (146) 
nan

>  <Num_H_Atoms_ProtBoundConf>  (146) 
nan

>  <Num_Resolved_Atoms>  (146) 
nan

>  <Num_Not_Resolved_Atoms>  (146) 
nan

$$$$
CHEMBL1574787
     RDKit          3D

  0  0  0  0  0  0  0  0  0  0999 V3000
M  V30 BEGIN CTAB
M  V30 COUNTS 41 44 0 0 0
M  V30 BEGIN ATOM
M  V30 1 C 2.508113 -6.053957 -2.490277 0
M  V30 2 O 1.723046 -4.875700 -2.476990 0
M  V30 3 C 1.884634 -4.023098 -1.391592 0
M  V30 4 C 2.736004 -4.208762 -0.320882 0
M  V30 5 C 2.790638 -3.271643 0.690812 0
M  V30 6 C 2.002020 -2.131480 0.661038 0
M  V30 7 C 1.142238 -1.947886 -0.424129 0
M  V30 8 C 1.090823 -2.889157 -1.435206 0
M  V30 9 O 0.219767 -2.617147 -2.449151 0
M  V30 10 C -1.133194 -3.021435 -2.479620 0
M  V30 11 C 0.456708 -0.679098 -0.174104 0
M  V30 12 O -0.400026 -0.168692 -0.930044 0
M  V30 13 N 0.898294 -0.114644 1.037800 0
M  V30 14 C 0.439833 1.118201 1.586890 0
M  V30 15 C 1.051372 2.320699 1.294146 0
M  V30 16 C 0.543103 3.467512 1.868934 0
M  V30 17 C -0.542836 3.433210 2.713267 0
M  V30 18 C -1.156548 2.233604 3.008156 0
M  V30 19 C -0.658987 1.103783 2.444372 0
M  V30 20 C -2.301415 2.411232 3.931313 0
M  V30 21 C -2.277927 3.862580 4.278650 0
M  V30 22 C -1.239097 4.525595 3.426737 0
M  V30 23 C 1.866366 -1.005936 1.579430 0
M  V30 24 O 2.479650 -0.838430 2.650052 0
M  V30 25 H 3.568454 -5.884121 -2.211440 0
M  V30 26 H 2.103423 -6.748597 -1.702462 0
M  V30 27 H 2.524982 -6.531759 -3.490489 0
M  V30 28 H 3.332607 -5.110973 -0.337754 0
M  V30 29 H 3.469275 -3.436398 1.527633 0
M  V30 30 H -1.159670 -4.099038 -2.716138 0
M  V30 31 H -1.566475 -2.883333 -1.451501 0
M  V30 32 H -1.713305 -2.406670 -3.198113 0
M  V30 33 H 1.902840 2.344769 0.631681 0
M  V30 34 H 1.003643 4.424056 1.656336 0
M  V30 35 H -1.115080 0.143094 2.652846 0
M  V30 36 H -3.263626 2.091253 3.484385 0
M  V30 37 H -2.126138 1.788336 4.823830 0
M  V30 38 H -2.057387 3.975635 5.366149 0
M  V30 39 H -3.289128 4.337624 4.143306 0
M  V30 40 H -0.507439 5.031324 4.092489 0
M  V30 41 H -1.676720 5.239397 2.684723 0
M  V30 END ATOM
M  V30 BEGIN BOND
M  V30 1 1 1 2
M  V30 2 1 2 3
M  V30 3 2 3 4
M  V30 4 1 4 5
M  V30 5 2 5 6
M  V30 6 1 6 7
M  V30 7 2 7 8
M  V30 8 1 8 9
M  V30 9 1 9 10
M  V30 10 1 7 11
M  V30 11 2 11 12
M  V30 12 1 11 13
M  V30 13 1 13 14
M  V30 14 2 14 15
M  V30 15 1 15 16
M  V30 16 2 16 17
M  V30 17 1 17 18
M  V30 18 2 18 19
M  V30 19 1 18 20
M  V30 20 1 20 21
M  V30 21 1 21 22
M  V30 22 1 13 23
M  V30 23 2 23 24
M  V30 24 1 8 3
M  V30 25 1 19 14
M  V30 26 1 23 6
M  V30 27 1 22 17
M  V30 28 1 1 25
M  V30 29 1 1 26
M  V30 30 1 1 27
M  V30 31 1 4 28
M  V30 32 1 5 29
M  V30 33 1 10 30
M  V30 34 1 10 31
M  V30 35 1 10 32
M  V30 36 1 15 33
M  V30 37 1 16 34
M  V30 38 1 19 35
M  V30 39 1 20 36
M  V30 40 1 20 37
M  V30 41 1 21 38
M  V30 42 1 21 39
M  V30 43 1 22 40
M  V30 44 1 22 41
M  V30 END BOND
M  V30 END CTAB
M  END
>  <Dataset>  (147) 
ChEMBL_Kinases

>  <Ligand_Instance>  (147) 
nan

>  <PDB_ID>  (147) 
nan

>  <Standardized_SMILES>  (147) 
COc1ccc2c(c1OC)C(=O)N(c1ccc3c(c1)CCC3)C2=O

>  <Name>  (147) 
nan

>  <Pocket>  (147) 
nan

>  <ATP_Site>  (147) 
nan

>  <Peripheral>  (147) 
nan

>  <Num_H_Atoms_ProtBoundConf>  (147) 
nan

>  <Num_Resolved_Atoms>  (147) 
nan

>  <Num_Not_Resolved_Atoms>  (147) 
nan

$$$$
CHEMBL1573989
     RDKit          3D

  0  0  0  0  0  0  0  0  0  0999 V3000
M  V30 BEGIN CTAB
M  V30 COUNTS 41 43 0 0 0
M  V30 BEGIN ATOM
M  V30 1 C 0.857397 -5.044518 -0.547274 0
M  V30 2 O 1.406738 -3.775577 -0.251305 0
M  V30 3 C 1.715284 -2.822982 -1.223198 0
M  V30 4 O 1.451370 -3.220279 -2.409087 0
M  V30 5 C 2.294981 -1.504841 -0.749803 0
M  V30 6 C 2.041006 -1.336150 0.697511 0
M  V30 7 N 3.000386 -1.517263 1.643810 0
M  V30 8 N 2.460623 -1.355894 2.831401 0
M  V30 9 C 1.148992 -1.071737 2.570280 0
M  V30 10 C 0.804078 -1.037627 1.204141 0
M  V30 11 C -0.589703 -0.722355 0.967724 0
M  V30 12 C -0.891712 0.548095 0.209437 0
M  V30 13 C -0.382899 0.675196 -1.145196 0
M  V30 14 C 0.541076 1.635381 -1.362212 0
M  V30 15 C 1.167892 2.625713 -0.455893 0
M  V30 16 C 0.705269 2.376158 0.954947 0
M  V30 17 C -0.654804 1.781679 1.046998 0
M  V30 18 C -1.311702 -0.557495 2.320147 0
M  V30 19 C -2.731399 -0.289737 2.053551 0
M  V30 20 N -3.874736 -0.079507 1.859186 0
M  V30 21 C -0.991503 -0.595983 3.600063 0
M  V30 22 N -1.842819 -0.402980 4.732020 0
M  V30 23 O 0.361702 -0.873860 3.726257 0
M  V30 24 H -0.125287 -5.226730 -0.037904 0
M  V30 25 H 1.533253 -5.867967 -0.254474 0
M  V30 26 H 0.777393 -5.123949 -1.661297 0
M  V30 27 H 2.000878 -0.717696 -1.414422 0
M  V30 28 H 3.412813 -1.695140 -0.856619 0
M  V30 29 H 3.097930 -1.471283 3.636345 0
M  V30 30 H -1.101495 -1.553929 0.460626 0
M  V30 31 H -2.043032 0.556880 0.076896 0
M  V30 32 H -0.663395 0.081145 -2.007941 0
M  V30 33 H 0.937724 1.748648 -2.387912 0
M  V30 34 H 1.063539 3.660983 -0.780913 0
M  V30 35 H 2.275714 2.401979 -0.517571 0
M  V30 36 H 0.633765 3.387133 1.457731 0
M  V30 37 H 1.485549 1.848757 1.515232 0
M  V30 38 H -1.386076 2.590658 0.790951 0
M  V30 39 H -0.837010 1.539221 2.120981 0
M  V30 40 H -2.422605 0.490485 4.709561 0
M  V30 41 H -1.772340 -1.178682 5.432306 0
M  V30 END ATOM
M  V30 BEGIN BOND
M  V30 1 1 1 2
M  V30 2 1 2 3
M  V30 3 2 3 4
M  V30 4 1 3 5
M  V30 5 1 5 6
M  V30 6 2 6 7
M  V30 7 1 7 8
M  V30 8 1 8 9
M  V30 9 2 9 10
M  V30 10 1 10 11
M  V30 11 1 11 12
M  V30 12 1 12 13
M  V30 13 2 13 14
M  V30 14 1 14 15
M  V30 15 1 15 16
M  V30 16 1 16 17
M  V30 17 1 11 18
M  V30 18 1 18 19
M  V30 19 3 19 20
M  V30 20 2 18 21
M  V30 21 1 21 22
M  V30 22 1 21 23
M  V30 23 1 10 6
M  V30 24 1 17 12
M  V30 25 1 23 9
M  V30 26 1 1 24
M  V30 27 1 1 25
M  V30 28 1 1 26
M  V30 29 1 5 27
M  V30 30 1 5 28
M  V30 31 1 8 29
M  V30 32 1 11 30
M  V30 33 1 12 31
M  V30 34 1 13 32
M  V30 35 1 14 33
M  V30 36 1 15 34
M  V30 37 1 15 35
M  V30 38 1 16 36
M  V30 39 1 16 37
M  V30 40 1 17 38
M  V30 41 1 17 39
M  V30 42 1 22 40
M  V30 43 1 22 41
M  V30 END BOND
M  V30 END CTAB
M  END
>  <Dataset>  (148) 
ChEMBL_Kinases

>  <Ligand_Instance>  (148) 
nan

>  <PDB_ID>  (148) 
nan

>  <Standardized_SMILES>  (148) 
COC(=O)Cc1n[nH]c2c1C(C1C=CCCC1)C(C#N)=C(N)O2

>  <Name>  (148) 
nan

>  <Pocket>  (148) 
nan

>  <ATP_Site>  (148) 
nan

>  <Peripheral>  (148) 
nan

>  <Num_H_Atoms_ProtBoundConf>  (148) 
nan

>  <Num_Resolved_Atoms>  (148) 
nan

>  <Num_Not_Resolved_Atoms>  (148) 
nan

$$$$
CHEMBL1590639
     RDKit          3D

  0  0  0  0  0  0  0  0  0  0999 V3000
M  V30 BEGIN CTAB
M  V30 COUNTS 60 63 0 0 0
M  V30 BEGIN ATOM
M  V30 1 C 1.996218 -3.338665 6.391998 0
M  V30 2 O 3.188983 -2.946178 5.712955 0
M  V30 3 C 3.076117 -2.605734 4.354370 0
M  V30 4 C 4.225309 -2.227736 3.700382 0
M  V30 5 C 4.277252 -1.866075 2.372966 0
M  V30 6 C 3.118363 -1.875669 1.630511 0
M  V30 7 C 2.809748 -1.565284 0.242192 0
M  V30 8 O 2.562824 -2.617470 -0.404475 0
M  V30 9 N 2.793858 -0.229458 -0.294905 0
M  V30 10 C 3.060857 1.068850 0.292025 0
M  V30 11 C 2.125841 2.124968 -0.240081 0
M  V30 12 C 0.785777 1.543434 -0.666021 0
M  V30 13 C -0.117946 2.627894 -1.129819 0
M  V30 14 C -1.563232 2.515870 -0.848844 0
M  V30 15 N -1.855014 1.207560 -0.284591 0
M  V30 16 C -2.787850 0.388659 -0.960031 0
M  V30 17 O -3.223119 0.965734 -1.970615 0
M  V30 18 N -3.120827 -0.919163 -0.470146 0
M  V30 19 C -4.049804 -1.707038 -1.183653 0
M  V30 20 C -4.828609 -1.452129 -2.256854 0
M  V30 21 C -5.670417 -2.304985 -2.892281 0
M  V30 22 C -5.719134 -3.591434 -2.353978 0
M  V30 23 C -4.977683 -3.969115 -1.269280 0
M  V30 24 C -5.014060 -5.297040 -0.726962 0
M  V30 25 N -5.060793 -6.367909 -0.300926 0
M  V30 26 C -4.149468 -2.994820 -0.706859 0
M  V30 27 C -1.068537 0.991633 0.941509 0
M  V30 28 C 0.308010 0.643883 0.415958 0
M  V30 29 C 1.141620 0.695819 -1.875718 0
M  V30 30 C 2.436336 -0.053517 -1.687457 0
M  V30 31 C 1.930018 -2.256384 2.268099 0
M  V30 32 C 1.885157 -2.621255 3.613558 0
M  V30 33 H 1.584141 -4.218375 5.818136 0
M  V30 34 H 2.168543 -3.622176 7.435550 0
M  V30 35 H 1.269978 -2.516503 6.290775 0
M  V30 36 H 5.206753 -2.183686 4.195338 0
M  V30 37 H 5.101273 -1.555403 1.757977 0
M  V30 38 H 3.086938 1.038727 1.401565 0
M  V30 39 H 4.125021 1.311092 -0.010375 0
M  V30 40 H 2.020256 2.984848 0.446133 0
M  V30 41 H 2.592305 2.526664 -1.172619 0
M  V30 42 H -0.006841 2.803588 -2.243428 0
M  V30 43 H 0.252352 3.592390 -0.697715 0
M  V30 44 H -2.173104 2.708593 -1.754868 0
M  V30 45 H -1.860990 3.274187 -0.095037 0
M  V30 46 H -2.636590 -1.191381 0.396546 0
M  V30 47 H -4.786320 -0.451712 -2.648853 0
M  V30 48 H -6.241620 -1.985919 -3.745186 0
M  V30 49 H -6.384041 -4.301570 -2.846840 0
M  V30 50 H -3.585849 -3.348800 0.152917 0
M  V30 51 H -1.102068 1.883104 1.573074 0
M  V30 52 H -1.486543 0.113121 1.450730 0
M  V30 53 H 0.207859 -0.401507 0.056278 0
M  V30 54 H 0.967465 0.613845 1.304313 0
M  V30 55 H 1.297598 1.402581 -2.720121 0
M  V30 56 H 0.313882 0.042868 -2.170374 0
M  V30 57 H 2.286467 -1.054715 -2.166511 0
M  V30 58 H 3.281929 0.470627 -2.179549 0
M  V30 59 H 0.925226 -2.324236 1.857142 0
M  V30 60 H 1.016862 -2.922464 4.166847 0
M  V30 END ATOM
M  V30 BEGIN BOND
M  V30 1 1 1 2
M  V30 2 1 2 3
M  V30 3 2 3 4
M  V30 4 1 4 5
M  V30 5 2 5 6
M  V30 6 1 6 7
M  V30 7 2 7 8
M  V30 8 1 7 9
M  V30 9 1 9 10
M  V30 10 1 10 11
M  V30 11 1 11 12
M  V30 12 1 12 13
M  V30 13 1 13 14
M  V30 14 1 14 15
M  V30 15 1 15 16
M  V30 16 2 16 17
M  V30 17 1 16 18
M  V30 18 1 18 19
M  V30 19 2 19 20
M  V30 20 1 20 21
M  V30 21 2 21 22
M  V30 22 1 22 23
M  V30 23 1 23 24
M  V30 24 3 24 25
M  V30 25 2 23 26
M  V30 26 1 15 27
M  V30 27 1 27 28
M  V30 28 1 12 29
M  V30 29 1 29 30
M  V30 30 1 6 31
M  V30 31 2 31 32
M  V30 32 1 32 3
M  V30 33 1 30 9
M  V30 34 1 28 12
M  V30 35 1 26 19
M  V30 36 1 1 33
M  V30 37 1 1 34
M  V30 38 1 1 35
M  V30 39 1 4 36
M  V30 40 1 5 37
M  V30 41 1 10 38
M  V30 42 1 10 39
M  V30 43 1 11 40
M  V30 44 1 11 41
M  V30 45 1 13 42
M  V30 46 1 13 43
M  V30 47 1 14 44
M  V30 48 1 14 45
M  V30 49 1 18 46
M  V30 50 1 20 47
M  V30 51 1 21 48
M  V30 52 1 22 49
M  V30 53 1 26 50
M  V30 54 1 27 51
M  V30 55 1 27 52
M  V30 56 1 28 53
M  V30 57 1 28 54
M  V30 58 1 29 55
M  V30 59 1 29 56
M  V30 60 1 30 57
M  V30 61 1 30 58
M  V30 62 1 31 59
M  V30 63 1 32 60
M  V30 END BOND
M  V30 END CTAB
M  END
>  <Dataset>  (149) 
ChEMBL_Kinases

>  <Ligand_Instance>  (149) 
nan

>  <PDB_ID>  (149) 
nan

>  <Standardized_SMILES>  (149) 
COc1ccc(C(=O)N2CCC3(CCN(C(=O)Nc4cccc(C#N)c4)CC3)CC2)cc1

>  <Name>  (149) 
nan

>  <Pocket>  (149) 
nan

>  <ATP_Site>  (149) 
nan

>  <Peripheral>  (149) 
nan

>  <Num_H_Atoms_ProtBoundConf>  (149) 
nan

>  <Num_Resolved_Atoms>  (149) 
nan

>  <Num_Not_Resolved_Atoms>  (149) 
nan

$$$$
CHEMBL1590598
     RDKit          3D

  0  0  0  0  0  0  0  0  0  0999 V3000
M  V30 BEGIN CTAB
M  V30 COUNTS 40 43 0 0 0
M  V30 BEGIN ATOM
M  V30 1 C 0.128857 -5.090381 0.126100 0
M  V30 2 C 1.333286 -4.570322 0.841822 0
M  V30 3 N 2.471611 -5.204998 1.173269 0
M  V30 4 O 3.251400 -4.376216 1.784880 0
M  V30 5 C 2.658820 -3.200370 1.870043 0
M  V30 6 C 3.178226 -1.931862 2.494178 0
M  V30 7 C 1.394311 -3.243583 1.274843 0
M  V30 8 C 0.412357 -2.176546 1.137622 0
M  V30 9 N 0.533365 -1.328652 0.080031 0
M  V30 10 C -0.370949 -0.318337 -0.082359 0
M  V30 11 N -0.418794 0.663402 -1.106353 0
M  V30 12 C 0.422250 1.808279 -1.019298 0
M  V30 13 C 0.360959 2.913245 -1.882129 0
M  V30 14 C 1.200498 4.007231 -1.780686 0
M  V30 15 C 2.132066 3.958500 -0.756579 0
M  V30 16 C 2.262159 2.917172 0.133134 0
M  V30 17 C 1.389677 1.862552 -0.031134 0
M  V30 18 C -1.374338 -0.226369 0.865906 0
M  V30 19 C -2.349881 0.744269 0.806763 0
M  V30 20 C -3.389303 0.908361 1.699963 0
M  V30 21 C -3.468813 0.023726 2.753221 0
M  V30 22 C -2.507287 -0.984929 2.869033 0
M  V30 23 C -1.494094 -1.085525 1.934526 0
M  V30 24 N -0.571229 -2.086360 2.067449 0
M  V30 25 H -0.770495 -4.606250 0.564899 0
M  V30 26 H 0.184062 -4.955745 -0.961930 0
M  V30 27 H 0.053626 -6.177193 0.342071 0
M  V30 28 H 4.088177 -2.186141 3.067621 0
M  V30 29 H 2.405413 -1.513759 3.159176 0
M  V30 30 H 3.401218 -1.190456 1.676888 0
M  V30 31 H -1.066470 0.542306 -1.909197 0
M  V30 32 H -0.396034 2.880133 -2.658768 0
M  V30 33 H 1.106743 4.828059 -2.476894 0
M  V30 34 H 2.798126 4.831262 -0.686093 0
M  V30 35 H 3.022947 2.941605 0.916618 0
M  V30 36 H 1.551091 1.067882 0.711097 0
M  V30 37 H -2.316784 1.470610 -0.023871 0
M  V30 38 H -4.123002 1.698981 1.588379 0
M  V30 39 H -4.296467 0.188092 3.426335 0
M  V30 40 H -2.623825 -1.650119 3.715249 0
M  V30 END ATOM
M  V30 BEGIN BOND
M  V30 1 1 1 2
M  V30 2 2 2 3
M  V30 3 1 3 4
M  V30 4 1 4 5
M  V30 5 1 5 6
M  V30 6 2 5 7
M  V30 7 1 7 8
M  V30 8 2 8 9
M  V30 9 1 9 10
M  V30 10 1 10 11
M  V30 11 1 11 12
M  V30 12 2 12 13
M  V30 13 1 13 14
M  V30 14 2 14 15
M  V30 15 1 15 16
M  V30 16 2 16 17
M  V30 17 2 10 18
M  V30 18 1 18 19
M  V30 19 2 19 20
M  V30 20 1 20 21
M  V30 21 2 21 22
M  V30 22 1 22 23
M  V30 23 2 23 24
M  V30 24 1 7 2
M  V30 25 1 24 8
M  V30 26 1 17 12
M  V30 27 1 23 18
M  V30 28 1 1 25
M  V30 29 1 1 26
M  V30 30 1 1 27
M  V30 31 1 6 28
M  V30 32 1 6 29
M  V30 33 1 6 30
M  V30 34 1 11 31
M  V30 35 1 13 32
M  V30 36 1 14 33
M  V30 37 1 15 34
M  V30 38 1 16 35
M  V30 39 1 17 36
M  V30 40 1 19 37
M  V30 41 1 20 38
M  V30 42 1 21 39
M  V30 43 1 22 40
M  V30 END BOND
M  V30 END CTAB
M  END
>  <Dataset>  (150) 
ChEMBL_Kinases

>  <Ligand_Instance>  (150) 
nan

>  <PDB_ID>  (150) 
nan

>  <Standardized_SMILES>  (150) 
Cc1noc(C)c1-c1nc(Nc2ccccc2)c2ccccc2n1

>  <Name>  (150) 
nan

>  <Pocket>  (150) 
nan

>  <ATP_Site>  (150) 
nan

>  <Peripheral>  (150) 
nan

>  <Num_H_Atoms_ProtBoundConf>  (150) 
nan

>  <Num_Resolved_Atoms>  (150) 
nan

>  <Num_Not_Resolved_Atoms>  (150) 
nan

$$$$
CHEMBL1590467
     RDKit          3D

  0  0  0  0  0  0  0  0  0  0999 V3000
M  V30 BEGIN CTAB
M  V30 COUNTS 53 55 0 0 0
M  V30 BEGIN ATOM
M  V30 1 C 2.919388 -4.639334 3.117866 0
M  V30 2 O 3.448532 -4.037918 1.960891 0
M  V30 3 C 3.008111 -2.725151 1.982890 0
M  V30 4 C 3.501279 -1.981185 0.809369 0
M  V30 5 O 4.233562 -2.383398 -0.151166 0
M  V30 6 N 3.122139 -0.617382 0.707024 0
M  V30 7 C 3.543241 0.220069 -0.399978 0
M  V30 8 C 2.753330 1.489001 -0.446270 0
M  V30 9 C 1.281610 1.314146 -0.195915 0
M  V30 10 C 0.987205 0.387627 0.956423 0
M  V30 11 C 2.293920 0.071600 1.671962 0
M  V30 12 C 0.687560 2.671184 0.142186 0
M  V30 13 C -0.798029 2.568299 0.415983 0
M  V30 14 N -1.329997 1.448813 -0.352124 0
M  V30 15 C -2.318362 0.660202 0.302904 0
M  V30 16 O -2.543225 1.105400 1.459096 0
M  V30 17 N -2.889394 -0.452554 -0.378258 0
M  V30 18 C -3.880820 -1.365276 0.082591 0
M  V30 19 C -5.251379 -1.239744 -0.056456 0
M  V30 20 C -6.081999 -2.226829 0.454049 0
M  V30 21 C -5.578907 -3.344818 1.104756 0
M  V30 22 C -4.191073 -3.460264 1.239030 0
M  V30 23 C -3.662981 -4.632275 1.921206 0
M  V30 24 N -3.228630 -5.585577 2.458339 0
M  V30 25 C -3.359994 -2.482600 0.733818 0
M  V30 26 C -0.715302 1.374373 -1.670373 0
M  V30 27 C 0.659848 0.795335 -1.490897 0
M  V30 28 H 3.271123 -4.130100 4.036762 0
M  V30 29 H 3.173122 -5.712561 3.141135 0
M  V30 30 H 1.808140 -4.494159 3.096111 0
M  V30 31 H 1.896643 -2.737690 1.919384 0
M  V30 32 H 3.255481 -2.244742 2.954393 0
M  V30 33 H 4.597490 0.510276 -0.157908 0
M  V30 34 H 3.575385 -0.340260 -1.357802 0
M  V30 35 H 2.844885 1.908006 -1.478335 0
M  V30 36 H 3.194277 2.240603 0.233031 0
M  V30 37 H 0.490980 -0.559198 0.620312 0
M  V30 38 H 0.309103 0.844841 1.719495 0
M  V30 39 H 2.110653 -0.527453 2.587613 0
M  V30 40 H 2.764055 1.062385 1.897781 0
M  V30 41 H 0.802101 3.364697 -0.714742 0
M  V30 42 H 1.199229 3.021308 1.049002 0
M  V30 43 H -1.279880 3.515450 0.140449 0
M  V30 44 H -0.984162 2.455230 1.515698 0
M  V30 45 H -2.560527 -0.656569 -1.348275 0
M  V30 46 H -5.588302 -0.352369 -0.569807 0
M  V30 47 H -7.141156 -2.066494 0.311174 0
M  V30 48 H -6.270043 -4.106762 1.496321 0
M  V30 49 H -2.314716 -2.641926 0.875431 0
M  V30 50 H -0.722732 2.362740 -2.177250 0
M  V30 51 H -1.303372 0.640871 -2.295884 0
M  V30 52 H 1.299427 1.011769 -2.369381 0
M  V30 53 H 0.549226 -0.313620 -1.436050 0
M  V30 END ATOM
M  V30 BEGIN BOND
M  V30 1 1 1 2
M  V30 2 1 2 3
M  V30 3 1 3 4
M  V30 4 2 4 5
M  V30 5 1 4 6
M  V30 6 1 6 7
M  V30 7 1 7 8
M  V30 8 1 8 9
M  V30 9 1 9 10
M  V30 10 1 10 11
M  V30 11 1 9 12
M  V30 12 1 12 13
M  V30 13 1 13 14
M  V30 14 1 14 15
M  V30 15 2 15 16
M  V30 16 1 15 17
M  V30 17 1 17 18
M  V30 18 2 18 19
M  V30 19 1 19 20
M  V30 20 2 20 21
M  V30 21 1 21 22
M  V30 22 1 22 23
M  V30 23 3 23 24
M  V30 24 2 22 25
M  V30 25 1 14 26
M  V30 26 1 26 27
M  V30 27 1 11 6
M  V30 28 1 25 18
M  V30 29 1 27 9
M  V30 30 1 1 28
M  V30 31 1 1 29
M  V30 32 1 1 30
M  V30 33 1 3 31
M  V30 34 1 3 32
M  V30 35 1 7 33
M  V30 36 1 7 34
M  V30 37 1 8 35
M  V30 38 1 8 36
M  V30 39 1 10 37
M  V30 40 1 10 38
M  V30 41 1 11 39
M  V30 42 1 11 40
M  V30 43 1 12 41
M  V30 44 1 12 42
M  V30 45 1 13 43
M  V30 46 1 13 44
M  V30 47 1 17 45
M  V30 48 1 19 46
M  V30 49 1 20 47
M  V30 50 1 21 48
M  V30 51 1 25 49
M  V30 52 1 26 50
M  V30 53 1 26 51
M  V30 54 1 27 52
M  V30 55 1 27 53
M  V30 END BOND
M  V30 END CTAB
M  END
>  <Dataset>  (151) 
ChEMBL_Kinases

>  <Ligand_Instance>  (151) 
nan

>  <PDB_ID>  (151) 
nan

>  <Standardized_SMILES>  (151) 
COCC(=O)N1CCC2(CC1)CCN(C(=O)Nc1cccc(C#N)c1)CC2

>  <Name>  (151) 
nan

>  <Pocket>  (151) 
nan

>  <ATP_Site>  (151) 
nan

>  <Peripheral>  (151) 
nan

>  <Num_H_Atoms_ProtBoundConf>  (151) 
nan

>  <Num_Resolved_Atoms>  (151) 
nan

>  <Num_Not_Resolved_Atoms>  (151) 
nan

$$$$
CHEMBL1590360
     RDKit          3D

  0  0  0  0  0  0  0  0  0  0999 V3000
M  V30 BEGIN CTAB
M  V30 COUNTS 32 34 0 0 0
M  V30 BEGIN ATOM
M  V30 1 C -2.437225 -3.297714 3.392079 0
M  V30 2 O -1.823077 -4.309521 2.606794 0
M  V30 3 C -0.932660 -3.947000 1.603170 0
M  V30 4 C -0.354050 -4.955331 0.859301 0
M  V30 5 C 0.544510 -4.729276 -0.163802 0
M  V30 6 C 0.849777 -3.406919 -0.419554 0
M  V30 7 C 0.303234 -2.359116 0.290122 0
M  V30 8 C 0.606927 -0.951705 0.042527 0
M  V30 9 C 1.482036 -0.531002 -0.938854 0
M  V30 10 C 1.791046 0.788622 -1.199055 0
M  V30 11 O 2.597413 1.130474 -2.106722 0
M  V30 12 C 1.194411 1.771027 -0.436390 0
M  V30 13 C 1.425540 3.120576 -0.604289 0
M  V30 14 C 0.760376 4.011990 0.230943 0
M  V30 15 O 0.976088 5.384311 0.082567 0
M  V30 16 C -0.122123 3.564566 1.218907 0
M  V30 17 C -0.331086 2.187660 1.359143 0
M  V30 18 C 0.330544 1.288608 0.527435 0
M  V30 19 O 0.060866 0.021135 0.745974 0
M  V30 20 C -0.589668 -2.646988 1.302114 0
M  V30 21 H -1.740969 -2.479492 3.671261 0
M  V30 22 H -2.824548 -3.728640 4.356044 0
M  V30 23 H -3.295338 -2.824970 2.870373 0
M  V30 24 H -0.613843 -5.989829 1.083651 0
M  V30 25 H 0.990968 -5.527189 -0.739242 0
M  V30 26 H 1.542350 -3.197550 -1.205552 0
M  V30 27 H 1.975759 -1.242116 -1.562452 0
M  V30 28 H 2.112606 3.442192 -1.375434 0
M  V30 29 H 1.906988 5.806988 0.046450 0
M  V30 30 H -0.647773 4.243592 1.877080 0
M  V30 31 H -1.014395 1.870091 2.126239 0
M  V30 32 H -1.026797 -1.851770 1.866546 0
M  V30 END ATOM
M  V30 BEGIN BOND
M  V30 1 1 1 2
M  V30 2 1 2 3
M  V30 3 2 3 4
M  V30 4 1 4 5
M  V30 5 2 5 6
M  V30 6 1 6 7
M  V30 7 1 7 8
M  V30 8 2 8 9
M  V30 9 1 9 10
M  V30 10 2 10 11
M  V30 11 1 10 12
M  V30 12 2 12 13
M  V30 13 1 13 14
M  V30 14 1 14 15
M  V30 15 2 14 16
M  V30 16 1 16 17
M  V30 17 2 17 18
M  V30 18 1 18 19
M  V30 19 2 7 20
M  V30 20 1 20 3
M  V30 21 1 19 8
M  V30 22 1 18 12
M  V30 23 1 1 21
M  V30 24 1 1 22
M  V30 25 1 1 23
M  V30 26 1 4 24
M  V30 27 1 5 25
M  V30 28 1 6 26
M  V30 29 1 9 27
M  V30 30 1 13 28
M  V30 31 1 15 29
M  V30 32 1 16 30
M  V30 33 1 17 31
M  V30 34 1 20 32
M  V30 END BOND
M  V30 END CTAB
M  END
>  <Dataset>  (152) 
ChEMBL_Kinases

>  <Ligand_Instance>  (152) 
nan

>  <PDB_ID>  (152) 
nan

>  <Standardized_SMILES>  (152) 
COc1cccc(-c2cc(=O)c3cc(O)ccc3o2)c1

>  <Name>  (152) 
nan

>  <Pocket>  (152) 
nan

>  <ATP_Site>  (152) 
nan

>  <Peripheral>  (152) 
nan

>  <Num_H_Atoms_ProtBoundConf>  (152) 
nan

>  <Num_Resolved_Atoms>  (152) 
nan

>  <Num_Not_Resolved_Atoms>  (152) 
nan

$$$$
CHEMBL1590270
     RDKit          3D

  0  0  0  0  0  0  0  0  0  0999 V3000
M  V30 BEGIN CTAB
M  V30 COUNTS 46 48 0 0 0
M  V30 BEGIN ATOM
M  V30 1 C -0.474164 -4.935604 2.295312 0
M  V30 2 C -1.885678 -4.864432 1.802768 0
M  V30 3 N -1.978250 -4.949407 0.358138 0
M  V30 4 C -1.179544 -3.881269 -0.163947 0
M  V30 5 N -0.103278 -4.183951 -0.893306 0
M  V30 6 C 0.673754 -3.186530 -1.379827 0
M  V30 7 C 0.305156 -1.877526 -1.089976 0
M  V30 8 N 1.054221 -0.859453 -1.544348 0
M  V30 9 C 0.780437 0.430604 -1.306379 0
M  V30 10 C 1.694482 1.478865 -1.797925 0
M  V30 11 C 2.804254 1.834208 -0.887664 0
M  V30 12 C 2.536149 2.291849 0.456284 0
M  V30 13 C 2.284888 3.545000 0.914021 0
M  V30 14 C 2.100069 3.824048 2.252145 0
M  V30 15 C 2.155238 2.862305 3.222669 0
M  V30 16 C 2.408017 1.546842 2.834584 0
M  V30 17 C 2.586844 1.318825 1.473250 0
M  V30 18 C -0.329744 0.668954 -0.559347 0
M  V30 19 O -0.668012 1.836373 -0.284043 0
M  V30 20 N -1.149069 -0.262220 -0.056294 0
M  V30 21 C -2.372529 -0.164585 0.673105 0
M  V30 22 C -2.212888 -0.037703 2.157979 0
M  V30 23 C -1.520054 1.186120 2.510433 0
M  V30 24 N -0.987601 2.165770 2.796594 0
M  V30 25 C -0.807717 -1.558706 -0.336486 0
M  V30 26 N -1.524171 -2.618509 0.107436 0
M  V30 27 H 0.272760 -4.760117 1.506876 0
M  V30 28 H -0.243113 -5.884021 2.851313 0
M  V30 29 H -0.288297 -4.103642 3.039424 0
M  V30 30 H -2.428806 -3.950921 2.169749 0
M  V30 31 H -2.465702 -5.711157 2.271002 0
M  V30 32 H -2.549034 -5.691959 -0.146138 0
M  V30 33 H 1.564498 -3.327624 -1.979622 0
M  V30 34 H 1.131200 2.359142 -2.187970 0
M  V30 35 H 2.174644 1.061979 -2.735519 0
M  V30 36 H 3.458512 0.901930 -0.816418 0
M  V30 37 H 3.526803 2.545720 -1.428724 0
M  V30 38 H 2.231204 4.320373 0.168278 0
M  V30 39 H 1.895995 4.826124 2.617689 0
M  V30 40 H 2.031628 2.945368 4.291332 0
M  V30 41 H 2.478109 0.711189 3.515756 0
M  V30 42 H 2.789001 0.271550 1.187330 0
M  V30 43 H -2.900061 0.775224 0.342552 0
M  V30 44 H -3.081386 -0.990193 0.403149 0
M  V30 45 H -3.206726 -0.029902 2.661915 0
M  V30 46 H -1.693742 -0.925400 2.600749 0
M  V30 END ATOM
M  V30 BEGIN BOND
M  V30 1 1 1 2
M  V30 2 1 2 3
M  V30 3 1 3 4
M  V30 4 2 4 5
M  V30 5 1 5 6
M  V30 6 2 6 7
M  V30 7 1 7 8
M  V30 8 2 8 9
M  V30 9 1 9 10
M  V30 10 1 10 11
M  V30 11 1 11 12
M  V30 12 2 12 13
M  V30 13 1 13 14
M  V30 14 2 14 15
M  V30 15 1 15 16
M  V30 16 2 16 17
M  V30 17 1 9 18
M  V30 18 2 18 19
M  V30 19 1 18 20
M  V30 20 1 20 21
M  V30 21 1 21 22
M  V30 22 1 22 23
M  V30 23 3 23 24
M  V30 24 1 20 25
M  V30 25 2 25 26
M  V30 26 1 26 4
M  V30 27 1 25 7
M  V30 28 1 17 12
M  V30 29 1 1 27
M  V30 30 1 1 28
M  V30 31 1 1 29
M  V30 32 1 2 30
M  V30 33 1 2 31
M  V30 34 1 3 32
M  V30 35 1 6 33
M  V30 36 1 10 34
M  V30 37 1 10 35
M  V30 38 1 11 36
M  V30 39 1 11 37
M  V30 40 1 13 38
M  V30 41 1 14 39
M  V30 42 1 15 40
M  V30 43 1 16 41
M  V30 44 1 17 42
M  V30 45 1 21 43
M  V30 46 1 21 44
M  V30 47 1 22 45
M  V30 48 1 22 46
M  V30 END BOND
M  V30 END CTAB
M  END
>  <Dataset>  (153) 
ChEMBL_Kinases

>  <Ligand_Instance>  (153) 
nan

>  <PDB_ID>  (153) 
nan

>  <Standardized_SMILES>  (153) 
CCNc1ncc2nc(CCc3ccccc3)c(=O)n(CCC#N)c2n1

>  <Name>  (153) 
nan

>  <Pocket>  (153) 
nan

>  <ATP_Site>  (153) 
nan

>  <Peripheral>  (153) 
nan

>  <Num_H_Atoms_ProtBoundConf>  (153) 
nan

>  <Num_Resolved_Atoms>  (153) 
nan

>  <Num_Not_Resolved_Atoms>  (153) 
nan

$$$$
CHEMBL1590123
     RDKit          3D

  0  0  0  0  0  0  0  0  0  0999 V3000
M  V30 BEGIN CTAB
M  V30 COUNTS 39 42 0 0 0
M  V30 BEGIN ATOM
M  V30 1 N -0.747408 -2.903799 -0.700009 0
M  V30 2 C 0.354270 -3.064853 -0.393676 0
M  V30 3 C 1.717845 -3.265032 -0.020243 0
M  V30 4 C 2.084250 -4.568494 0.311930 0
M  V30 5 C 3.378268 -4.856473 0.684450 0
M  V30 6 C 4.263175 -3.811142 0.708727 0
M  V30 7 C 3.950816 -2.501800 0.388791 0
M  V30 8 C 2.629220 -2.233821 0.013184 0
M  V30 9 C 2.232012 -0.874102 -0.336988 0
M  V30 10 C 3.086225 -0.157024 -1.180274 0
M  V30 11 C 2.778725 1.133474 -1.555626 0
M  V30 12 C 1.616031 1.717726 -1.091833 0
M  V30 13 N 1.303096 2.971807 -1.447871 0
M  V30 14 C 0.160596 3.529869 -0.985115 0
M  V30 15 N -0.658424 2.837237 -0.174335 0
M  V30 16 C -0.420843 1.580268 0.229627 0
M  V30 17 N -1.333291 0.907633 1.089488 0
M  V30 18 C -2.523151 1.617183 1.515144 0
M  V30 19 C -3.354952 0.831344 2.374601 0
M  V30 20 C -3.212386 0.796156 3.780063 0
M  V30 21 C -3.995396 0.069504 4.602613 0
M  V30 22 C -5.047445 -0.718494 3.957448 0
M  V30 23 S -4.816459 -0.332200 2.117266 0
M  V30 24 C 0.750573 1.039729 -0.258716 0
M  V30 25 C 1.088160 -0.233703 0.090527 0
M  V30 26 H 1.355473 -5.388946 0.284431 0
M  V30 27 H 3.684690 -5.854659 0.945195 0
M  V30 28 H 5.289290 -4.006209 0.997944 0
M  V30 29 H 4.676320 -1.704005 0.419684 0
M  V30 30 H 4.008453 -0.551240 -1.578485 0
M  V30 31 H 3.436309 1.706779 -2.214133 0
M  V30 32 H -0.164265 4.543429 -1.228321 0
M  V30 33 H -1.226598 -0.058992 1.447213 0
M  V30 34 H -3.118517 1.813585 0.568086 0
M  V30 35 H -2.300887 2.633270 1.913275 0
M  V30 36 H -2.544484 1.265208 4.478595 0
M  V30 37 H -4.306623 -0.285391 5.545969 0
M  V30 38 H -5.957047 -1.433538 3.713092 0
M  V30 39 H 0.471343 -0.831089 0.734393 0
M  V30 END ATOM
M  V30 BEGIN BOND
M  V30 1 3 1 2
M  V30 2 1 2 3
M  V30 3 2 3 4
M  V30 4 1 4 5
M  V30 5 2 5 6
M  V30 6 1 6 7
M  V30 7 2 7 8
M  V30 8 1 8 9
M  V30 9 2 9 10
M  V30 10 1 10 11
M  V30 11 2 11 12
M  V30 12 1 12 13
M  V30 13 2 13 14
M  V30 14 1 14 15
M  V30 15 2 15 16
M  V30 16 1 16 17
M  V30 17 1 17 18
M  V30 18 1 18 19
M  V30 19 2 19 20
M  V30 20 1 20 21
M  V30 21 2 21 22
M  V30 22 1 22 23
M  V30 23 1 16 24
M  V30 24 2 24 25
M  V30 25 1 8 3
M  V30 26 1 25 9
M  V30 27 1 24 12
M  V30 28 1 23 19
M  V30 29 1 4 26
M  V30 30 1 5 27
M  V30 31 1 6 28
M  V30 32 1 7 29
M  V30 33 1 10 30
M  V30 34 1 11 31
M  V30 35 1 14 32
M  V30 36 1 17 33
M  V30 37 1 18 34
M  V30 38 1 18 35
M  V30 39 1 20 36
M  V30 40 1 21 37
M  V30 41 1 22 38
M  V30 42 1 25 39
M  V30 END BOND
M  V30 END CTAB
M  END
>  <Dataset>  (154) 
ChEMBL_Kinases

>  <Ligand_Instance>  (154) 
nan

>  <PDB_ID>  (154) 
nan

>  <Standardized_SMILES>  (154) 
N#Cc1ccccc1-c1ccc2ncnc(NCc3cccs3)c2c1

>  <Name>  (154) 
nan

>  <Pocket>  (154) 
nan

>  <ATP_Site>  (154) 
nan

>  <Peripheral>  (154) 
nan

>  <Num_H_Atoms_ProtBoundConf>  (154) 
nan

>  <Num_Resolved_Atoms>  (154) 
nan

>  <Num_Not_Resolved_Atoms>  (154) 
nan

$$$$
CHEMBL1590106
     RDKit          3D

  0  0  0  0  0  0  0  0  0  0999 V3000
M  V30 BEGIN CTAB
M  V30 COUNTS 34 37 0 0 0
M  V30 BEGIN ATOM
M  V30 1 C 0.063883 -3.287757 4.757769 0
M  V30 2 N 0.115489 -2.476559 3.540332 0
M  V30 3 C 1.172186 -2.701098 2.628181 0
M  V30 4 N 2.096525 -3.624018 2.868277 0
M  V30 5 C 3.133833 -3.922388 2.084621 0
M  V30 6 N 3.277485 -3.228173 0.925598 0
M  V30 7 C 2.391360 -2.273048 0.594942 0
M  V30 8 C 2.565307 -1.582626 -0.595145 0
M  V30 9 C 1.649520 -0.586965 -0.950237 0
M  V30 10 C 0.605246 -0.341759 -0.082076 0
M  V30 11 C -0.368959 0.699281 -0.434573 0
M  V30 12 C -0.992697 1.422975 0.578176 0
M  V30 13 C -1.908309 2.397368 0.238825 0
M  V30 14 C -2.140536 2.583731 -1.107425 0
M  V30 15 C -1.531708 1.874801 -2.149687 0
M  V30 16 C -0.620809 0.907279 -1.775422 0
M  V30 17 O -2.061113 2.389516 -3.349280 0
M  V30 18 C -3.326825 2.993898 -3.034876 0
M  V30 19 O -3.012960 3.497659 -1.729844 0
M  V30 20 C 0.431711 -1.031779 1.106954 0
M  V30 21 C 1.350743 -2.008140 1.430244 0
M  V30 22 H 0.995412 -3.101214 5.315230 0
M  V30 23 H -0.845559 -3.108136 5.333190 0
M  V30 24 H 0.023074 -4.373067 4.457444 0
M  V30 25 H -0.653171 -1.782544 3.447335 0
M  V30 26 H 3.798495 -4.692848 2.409871 0
M  V30 27 H 3.411220 -1.827385 -1.232406 0
M  V30 28 H 1.783536 -0.041759 -1.885826 0
M  V30 29 H -0.761875 1.223331 1.621250 0
M  V30 30 H -2.430701 2.997876 0.967943 0
M  V30 31 H -0.146312 0.356293 -2.555028 0
M  V30 32 H -3.629891 3.761319 -3.741942 0
M  V30 33 H -4.024044 2.125856 -2.959900 0
M  V30 34 H -0.411160 -0.783406 1.735728 0
M  V30 END ATOM
M  V30 BEGIN BOND
M  V30 1 1 1 2
M  V30 2 1 2 3
M  V30 3 2 3 4
M  V30 4 1 4 5
M  V30 5 2 5 6
M  V30 6 1 6 7
M  V30 7 2 7 8
M  V30 8 1 8 9
M  V30 9 2 9 10
M  V30 10 1 10 11
M  V30 11 2 11 12
M  V30 12 1 12 13
M  V30 13 2 13 14
M  V30 14 1 14 15
M  V30 15 2 15 16
M  V30 16 1 15 17
M  V30 17 1 17 18
M  V30 18 1 18 19
M  V30 19 1 10 20
M  V30 20 2 20 21
M  V30 21 1 21 3
M  V30 22 1 21 7
M  V30 23 1 16 11
M  V30 24 1 19 14
M  V30 25 1 1 22
M  V30 26 1 1 23
M  V30 27 1 1 24
M  V30 28 1 2 25
M  V30 29 1 5 26
M  V30 30 1 8 27
M  V30 31 1 9 28
M  V30 32 1 12 29
M  V30 33 1 13 30
M  V30 34 1 16 31
M  V30 35 1 18 32
M  V30 36 1 18 33
M  V30 37 1 20 34
M  V30 END BOND
M  V30 END CTAB
M  END
>  <Dataset>  (155) 
ChEMBL_Kinases

>  <Ligand_Instance>  (155) 
nan

>  <PDB_ID>  (155) 
nan

>  <Standardized_SMILES>  (155) 
CNc1ncnc2ccc(-c3ccc4c(c3)OCO4)cc12

>  <Name>  (155) 
nan

>  <Pocket>  (155) 
nan

>  <ATP_Site>  (155) 
nan

>  <Peripheral>  (155) 
nan

>  <Num_H_Atoms_ProtBoundConf>  (155) 
nan

>  <Num_Resolved_Atoms>  (155) 
nan

>  <Num_Not_Resolved_Atoms>  (155) 
nan

$$$$
CHEMBL1590095
     RDKit          3D

  0  0  0  0  0  0  0  0  0  0999 V3000
M  V30 BEGIN CTAB
M  V30 COUNTS 58 61 0 0 0
M  V30 BEGIN ATOM
M  V30 1 C 1.478152 -4.356234 3.693757 0
M  V30 2 C 1.084519 -3.239202 2.772869 0
M  V30 3 N 2.058412 -2.348682 2.558114 0
M  V30 4 C 1.866603 -1.268180 1.741989 0
M  V30 5 N 2.909781 -0.336585 1.500642 0
M  V30 6 C 3.071519 0.878938 0.781419 0
M  V30 7 C 4.521867 1.313365 0.669609 0
M  V30 8 C 5.065517 1.815317 1.983549 0
M  V30 9 C 4.242897 3.033225 2.404560 0
M  V30 10 C 2.861752 2.464332 2.711750 0
M  V30 11 C 2.294531 2.056618 1.359586 0
M  V30 12 C 0.607421 -1.198539 1.184718 0
M  V30 13 N 0.060044 -0.307153 0.343921 0
M  V30 14 C -1.207057 -0.645249 0.057092 0
M  V30 15 C -2.096928 0.101716 -0.817860 0
M  V30 16 C -3.172112 0.741383 -0.188986 0
M  V30 17 C -4.089278 1.485267 -0.917718 0
M  V30 18 C -3.923508 1.586238 -2.289572 0
M  V30 19 C -2.841880 0.939175 -2.899933 0
M  V30 20 C -1.929859 0.197355 -2.162069 0
M  V30 21 N -1.525504 -1.774657 0.706278 0
M  V30 22 C -2.707851 -2.583850 0.770224 0
M  V30 23 C -2.741057 -3.688231 -0.257174 0
M  V30 24 N -2.720356 -3.213160 -1.599785 0
M  V30 25 C -3.943279 -2.549221 -1.997465 0
M  V30 26 C -2.380691 -4.191973 -2.588838 0
M  V30 27 C -0.399154 -2.113919 1.403213 0
M  V30 28 N -0.128075 -3.142790 2.216344 0
M  V30 29 H 2.182286 -4.028643 4.478952 0
M  V30 30 H 1.895086 -5.150214 3.042179 0
M  V30 31 H 0.584190 -4.769668 4.212917 0
M  V30 32 H 3.821691 -0.611486 1.985620 0
M  V30 33 H 2.705501 0.750972 -0.250752 0
M  V30 34 H 5.168098 0.512573 0.315580 0
M  V30 35 H 4.547374 2.162325 -0.042571 0
M  V30 36 H 6.117147 2.103148 1.816720 0
M  V30 37 H 4.942408 1.049492 2.788167 0
M  V30 38 H 4.119304 3.721103 1.535237 0
M  V30 39 H 4.689415 3.562734 3.254378 0
M  V30 40 H 2.178947 3.187973 3.162864 0
M  V30 41 H 3.041183 1.592249 3.361562 0
M  V30 42 H 1.227381 1.932926 1.355730 0
M  V30 43 H 2.523799 2.913282 0.665446 0
M  V30 44 H -3.384551 0.719241 0.883253 0
M  V30 45 H -4.934003 1.990086 -0.435526 0
M  V30 46 H -4.633999 2.164867 -2.867841 0
M  V30 47 H -2.710649 1.017229 -3.971703 0
M  V30 48 H -1.093248 -0.306787 -2.605101 0
M  V30 49 H -3.643211 -1.981573 0.652540 0
M  V30 50 H -2.795434 -3.084642 1.761009 0
M  V30 51 H -1.922951 -4.420942 -0.096844 0
M  V30 52 H -3.679574 -4.301953 -0.158140 0
M  V30 53 H -4.199976 -1.764724 -1.276560 0
M  V30 54 H -4.785266 -3.274175 -2.105036 0
M  V30 55 H -3.768517 -2.104136 -3.009008 0
M  V30 56 H -2.059535 -3.614190 -3.497346 0
M  V30 57 H -1.502809 -4.809125 -2.309961 0
M  V30 58 H -3.201905 -4.851096 -2.898738 0
M  V30 END ATOM
M  V30 BEGIN BOND
M  V30 1 1 1 2
M  V30 2 2 2 3
M  V30 3 1 3 4
M  V30 4 1 4 5
M  V30 5 1 5 6
M  V30 6 1 6 7
M  V30 7 1 7 8
M  V30 8 1 8 9
M  V30 9 1 9 10
M  V30 10 1 10 11
M  V30 11 2 4 12
M  V30 12 1 12 13
M  V30 13 2 13 14
M  V30 14 1 14 15
M  V30 15 2 15 16
M  V30 16 1 16 17
M  V30 17 2 17 18
M  V30 18 1 18 19
M  V30 19 2 19 20
M  V30 20 1 14 21
M  V30 21 1 21 22
M  V30 22 1 22 23
M  V30 23 1 23 24
M  V30 24 1 24 25
M  V30 25 1 24 26
M  V30 26 1 21 27
M  V30 27 2 27 28
M  V30 28 1 28 2
M  V30 29 1 11 6
M  V30 30 1 27 12
M  V30 31 1 20 15
M  V30 32 1 1 29
M  V30 33 1 1 30
M  V30 34 1 1 31
M  V30 35 1 5 32
M  V30 36 1 6 33
M  V30 37 1 7 34
M  V30 38 1 7 35
M  V30 39 1 8 36
M  V30 40 1 8 37
M  V30 41 1 9 38
M  V30 42 1 9 39
M  V30 43 1 10 40
M  V30 44 1 10 41
M  V30 45 1 11 42
M  V30 46 1 11 43
M  V30 47 1 16 44
M  V30 48 1 17 45
M  V30 49 1 18 46
M  V30 50 1 19 47
M  V30 51 1 20 48
M  V30 52 1 22 49
M  V30 53 1 22 50
M  V30 54 1 23 51
M  V30 55 1 23 52
M  V30 56 1 25 53
M  V30 57 1 25 54
M  V30 58 1 25 55
M  V30 59 1 26 56
M  V30 60 1 26 57
M  V30 61 1 26 58
M  V30 END BOND
M  V30 END CTAB
M  END
>  <Dataset>  (156) 
ChEMBL_Kinases

>  <Ligand_Instance>  (156) 
nan

>  <PDB_ID>  (156) 
nan

>  <Standardized_SMILES>  (156) 
Cc1nc(NC2CCCCC2)c2nc(-c3ccccc3)n(CCN(C)C)c2n1

>  <Name>  (156) 
nan

>  <Pocket>  (156) 
nan

>  <ATP_Site>  (156) 
nan

>  <Peripheral>  (156) 
nan

>  <Num_H_Atoms_ProtBoundConf>  (156) 
nan

>  <Num_Resolved_Atoms>  (156) 
nan

>  <Num_Not_Resolved_Atoms>  (156) 
nan

$$$$
CHEMBL1589925
     RDKit          3D

  0  0  0  0  0  0  0  0  0  0999 V3000
M  V30 BEGIN CTAB
M  V30 COUNTS 45 48 0 0 0
M  V30 BEGIN ATOM
M  V30 1 C 1.001923 -3.592746 0.162247 0
M  V30 2 O 1.353994 -2.253936 0.016188 0
M  V30 3 C 2.565659 -1.738585 -0.350592 0
M  V30 4 C 3.627454 -2.575061 -0.629233 0
M  V30 5 C 4.847408 -2.056693 -0.998507 0
M  V30 6 C 4.952095 -0.673135 -1.074660 0
M  V30 7 C 3.894902 0.172117 -0.797638 0
M  V30 8 C 2.662969 -0.344203 -0.424976 0
M  V30 9 C 1.549880 0.524497 -0.132590 0
M  V30 10 C 1.352772 1.558811 -1.030812 0
M  V30 11 C 0.317260 2.459386 -0.858474 0
M  V30 12 C -0.538531 2.323781 0.233314 0
M  V30 13 N -1.568485 3.183608 0.443526 0
M  V30 14 C -2.387052 3.027089 1.516799 0
M  V30 15 N -2.148812 2.006266 2.355025 0
M  V30 16 C -1.161671 1.120401 2.220211 0
M  V30 17 N -1.011691 0.067304 3.190767 0
M  V30 18 C 0.099796 -0.277963 4.090858 0
M  V30 19 C -2.216361 -0.701165 3.179295 0
M  V30 20 C -2.543614 -1.326248 1.880211 0
M  V30 21 C -3.300841 -0.750520 0.883556 0
M  V30 22 C -3.366722 -1.649124 -0.145814 0
M  V30 23 C -2.637616 -2.758461 0.262373 0
M  V30 24 O -2.170867 -2.521729 1.464542 0
M  V30 25 C -0.340507 1.295115 1.124432 0
M  V30 26 C 0.695654 0.400123 0.945346 0
M  V30 27 H 0.361342 -3.857847 -0.726513 0
M  V30 28 H 1.834128 -4.295650 0.262563 0
M  V30 29 H 0.287356 -3.674032 1.026828 0
M  V30 30 H 3.575143 -3.645069 -0.578603 0
M  V30 31 H 5.753639 -2.594017 -1.242182 0
M  V30 32 H 5.878698 -0.174394 -1.358624 0
M  V30 33 H 3.986614 1.246032 -0.859767 0
M  V30 34 H 1.964956 1.755715 -1.919597 0
M  V30 35 H 0.126280 3.291067 -1.544835 0
M  V30 36 H -3.200814 3.739336 1.647383 0
M  V30 37 H -0.224395 -0.224027 5.148375 0
M  V30 38 H 0.931587 0.445788 3.969048 0
M  V30 39 H 0.500492 -1.275955 3.827500 0
M  V30 40 H -3.104448 -0.129383 3.527828 0
M  V30 41 H -2.110230 -1.536205 3.901630 0
M  V30 42 H -3.770117 0.235923 0.891545 0
M  V30 43 H -3.873391 -1.531324 -1.078411 0
M  V30 44 H -2.485119 -3.664115 -0.321589 0
M  V30 45 H 0.868119 -0.403772 1.622172 0
M  V30 END ATOM
M  V30 BEGIN BOND
M  V30 1 1 1 2
M  V30 2 1 2 3
M  V30 3 2 3 4
M  V30 4 1 4 5
M  V30 5 2 5 6
M  V30 6 1 6 7
M  V30 7 2 7 8
M  V30 8 1 8 9
M  V30 9 2 9 10
M  V30 10 1 10 11
M  V30 11 2 11 12
M  V30 12 1 12 13
M  V30 13 2 13 14
M  V30 14 1 14 15
M  V30 15 2 15 16
M  V30 16 1 16 17
M  V30 17 1 17 18
M  V30 18 1 17 19
M  V30 19 1 19 20
M  V30 20 2 20 21
M  V30 21 1 21 22
M  V30 22 2 22 23
M  V30 23 1 23 24
M  V30 24 1 16 25
M  V30 25 2 25 26
M  V30 26 1 8 3
M  V30 27 1 26 9
M  V30 28 1 25 12
M  V30 29 1 24 20
M  V30 30 1 1 27
M  V30 31 1 1 28
M  V30 32 1 1 29
M  V30 33 1 4 30
M  V30 34 1 5 31
M  V30 35 1 6 32
M  V30 36 1 7 33
M  V30 37 1 10 34
M  V30 38 1 11 35
M  V30 39 1 14 36
M  V30 40 1 18 37
M  V30 41 1 18 38
M  V30 42 1 18 39
M  V30 43 1 19 40
M  V30 44 1 19 41
M  V30 45 1 21 42
M  V30 46 1 22 43
M  V30 47 1 23 44
M  V30 48 1 26 45
M  V30 END BOND
M  V30 END CTAB
M  END
>  <Dataset>  (157) 
ChEMBL_Kinases

>  <Ligand_Instance>  (157) 
nan

>  <PDB_ID>  (157) 
nan

>  <Standardized_SMILES>  (157) 
COc1ccccc1-c1ccc2ncnc(N(C)Cc3ccco3)c2c1

>  <Name>  (157) 
nan

>  <Pocket>  (157) 
nan

>  <ATP_Site>  (157) 
nan

>  <Peripheral>  (157) 
nan

>  <Num_H_Atoms_ProtBoundConf>  (157) 
nan

>  <Num_Resolved_Atoms>  (157) 
nan

>  <Num_Not_Resolved_Atoms>  (157) 
nan

$$$$
CHEMBL1589879
     RDKit          3D

  0  0  0  0  0  0  0  0  0  0999 V3000
M  V30 BEGIN CTAB
M  V30 COUNTS 85 89 0 0 0
M  V30 BEGIN ATOM
M  V30 1 C 1.792917 -6.890366 4.707050 0
M  V30 2 C 1.688802 -7.649543 3.430135 0
M  V30 3 C 1.981830 -6.781128 2.266786 0
M  V30 4 C 0.930097 -6.263337 1.499853 0
M  V30 5 C 1.101066 -5.458185 0.417776 0
M  V30 6 C 2.416777 -5.183856 0.126720 0
M  V30 7 N 3.446898 -5.665249 0.842697 0
M  V30 8 C 3.281264 -6.469479 1.922845 0
M  V30 9 C 4.493027 -6.930173 2.615325 0
M  V30 10 C 4.816922 -6.186128 3.887908 0
M  V30 11 C 2.780321 -4.320027 -1.024689 0
M  V30 12 C 1.644406 -3.656789 -1.700211 0
M  V30 13 N 0.374163 -3.686867 -1.076536 0
M  V30 14 C -0.056480 -2.461135 -0.506100 0
M  V30 15 C -1.399152 -2.425491 0.127978 0
M  V30 16 C -1.590935 -1.016796 0.630974 0
M  V30 17 C -0.659895 -0.548395 1.682503 0
M  V30 18 N -2.498975 -0.293147 0.163801 0
M  V30 19 O -2.836193 0.981073 0.470985 0
M  V30 20 C -1.986679 2.074295 0.334824 0
M  V30 21 C -2.714682 3.162700 -0.422383 0 CFG=1
M  V30 22 O -3.823967 3.513415 0.277481 0
M  V30 23 C -4.618002 4.472529 -0.331439 0 CFG=2
M  V30 24 C -5.562368 3.727904 -1.217084 0
M  V30 25 C -5.789346 4.165130 -2.512817 0
M  V30 26 C -6.664702 3.487521 -3.364983 0
M  V30 27 C -7.318802 2.346333 -2.888252 0
M  V30 28 C -7.040070 1.974612 -1.588396 0
M  V30 29 C -6.195850 2.598892 -0.713806 0
M  V30 30 C -3.826717 5.465125 -1.093692 0
M  V30 31 C -2.498688 5.459781 -1.341335 0
M  V30 32 C -1.771464 4.281820 -0.751496 0 CFG=2
M  V30 33 O -0.828437 3.875725 -1.720024 0
M  V30 34 C 0.528328 3.955810 -1.633210 0
M  V30 35 C 1.125734 3.430327 -2.783724 0
M  V30 36 C 2.517501 3.405843 -2.920371 0
M  V30 37 C 3.320839 3.909622 -1.899792 0
M  V30 38 O 4.702998 3.891357 -2.022257 0
M  V30 39 C 5.589479 4.377823 -1.045442 0
M  V30 40 C 2.735649 4.428138 -0.764250 0
M  V30 41 C 1.363106 4.442912 -0.650959 0
M  V30 42 C 0.021583 -4.891568 -0.416972 0
M  V30 43 H 1.882993 -5.799572 4.611970 0
M  V30 44 H 0.842843 -7.087184 5.297268 0
M  V30 45 H 2.599503 -7.294111 5.365697 0
M  V30 46 H 0.647983 -8.006135 3.301360 0
M  V30 47 H 2.323468 -8.566653 3.416967 0
M  V30 48 H -0.089295 -6.523128 1.794397 0
M  V30 49 H 5.354398 -6.896331 1.913548 0
M  V30 50 H 4.388667 -7.998753 2.904993 0
M  V30 51 H 4.855324 -6.845911 4.788729 0
M  V30 52 H 5.844780 -5.754951 3.774102 0
M  V30 53 H 4.156281 -5.333897 4.094692 0
M  V30 54 H 3.350338 -4.969547 -1.753456 0
M  V30 55 H 3.574627 -3.588323 -0.683725 0
M  V30 56 H 1.916917 -2.563279 -1.814751 0
M  V30 57 H 1.559944 -4.043250 -2.760649 0
M  V30 58 H 0.698715 -2.185748 0.276695 0
M  V30 59 H -0.041879 -1.676079 -1.301898 0
M  V30 60 H -1.483526 -3.052318 1.039972 0
M  V30 61 H -2.237064 -2.633078 -0.562373 0
M  V30 62 H -0.666988 -1.281169 2.543277 0
M  V30 63 H -0.911074 0.461690 2.054519 0
M  V30 64 H 0.406208 -0.471400 1.311061 0
M  V30 65 H -1.789587 2.483611 1.378910 0
M  V30 66 H -0.995147 1.838661 -0.075982 0
M  V30 67 H -3.044400 2.709343 -1.398569 0
M  V30 68 H -5.225204 4.953891 0.456179 0
M  V30 69 H -5.267996 5.050793 -2.846619 0
M  V30 70 H -6.778988 3.897932 -4.353972 0
M  V30 71 H -7.986878 1.839655 -3.549497 0
M  V30 72 H -7.593240 1.070019 -1.297353 0
M  V30 73 H -6.052965 2.218681 0.286237 0
M  V30 74 H -4.341868 6.317472 -1.520788 0
M  V30 75 H -2.006496 6.216943 -1.905369 0
M  V30 76 H -1.207716 4.668601 0.117703 0
M  V30 77 H 0.651754 3.006414 -3.656790 0
M  V30 78 H 3.037677 3.014302 -3.781009 0
M  V30 79 H 6.576811 3.844303 -1.152685 0
M  V30 80 H 5.256713 4.203599 -0.012207 0
M  V30 81 H 5.838219 5.456337 -1.201667 0
M  V30 82 H 3.310864 4.832318 0.065751 0
M  V30 83 H 0.815001 4.827074 0.195518 0
M  V30 84 H -0.925451 -4.783743 0.110818 0
M  V30 85 H -0.160168 -5.661462 -1.223684 0
M  V30 END ATOM
M  V30 BEGIN BOND
M  V30 1 1 1 2
M  V30 2 1 2 3
M  V30 3 2 3 4
M  V30 4 1 4 5
M  V30 5 2 5 6
M  V30 6 1 6 7
M  V30 7 2 7 8
M  V30 8 1 8 9
M  V30 9 1 9 10
M  V30 10 1 6 11
M  V30 11 1 11 12
M  V30 12 1 12 13
M  V30 13 1 13 14
M  V30 14 1 14 15
M  V30 15 1 15 16
M  V30 16 1 16 17
M  V30 17 2 16 18
M  V30 18 1 18 19
M  V30 19 1 19 20
M  V30 20 1 20 21
M  V30 21 1 21 22
M  V30 22 1 22 23
M  V30 23 1 23 24
M  V30 24 2 24 25
M  V30 25 1 25 26
M  V30 26 2 26 27
M  V30 27 1 27 28
M  V30 28 2 28 29
M  V30 29 1 23 30
M  V30 30 2 30 31
M  V30 31 1 31 32
M  V30 32 1 32 33
M  V30 33 1 33 34
M  V30 34 2 34 35
M  V30 35 1 35 36
M  V30 36 2 36 37
M  V30 37 1 37 38
M  V30 38 1 38 39
M  V30 39 1 37 40
M  V30 40 2 40 41
M  V30 41 1 13 42
M  V30 42 1 8 3
M  V30 43 1 32 21
M  V30 44 1 41 34
M  V30 45 1 42 5
M  V30 46 1 29 24
M  V30 47 1 1 43
M  V30 48 1 1 44
M  V30 49 1 1 45
M  V30 50 1 2 46
M  V30 51 1 2 47
M  V30 52 1 4 48
M  V30 53 1 9 49
M  V30 54 1 9 50
M  V30 55 1 10 51
M  V30 56 1 10 52
M  V30 57 1 10 53
M  V30 58 1 11 54
M  V30 59 1 11 55
M  V30 60 1 12 56
M  V30 61 1 12 57
M  V30 62 1 14 58
M  V30 63 1 14 59
M  V30 64 1 15 60
M  V30 65 1 15 61
M  V30 66 1 17 62
M  V30 67 1 17 63
M  V30 68 1 17 64
M  V30 69 1 20 65
M  V30 70 1 20 66
M  V30 71 1 21 67 CFG=3
M  V30 72 1 23 68 CFG=1
M  V30 73 1 25 69
M  V30 74 1 26 70
M  V30 75 1 27 71
M  V30 76 1 28 72
M  V30 77 1 29 73
M  V30 78 1 30 74
M  V30 79 1 31 75
M  V30 80 1 32 76 CFG=1
M  V30 81 1 35 77
M  V30 82 1 36 78
M  V30 83 1 39 79
M  V30 84 1 39 80
M  V30 85 1 39 81
M  V30 86 1 40 82
M  V30 87 1 41 83
M  V30 88 1 42 84
M  V30 89 1 42 85
M  V30 END BOND
M  V30 END CTAB
M  END
>  <Dataset>  (158) 
ChEMBL_Kinases

>  <Ligand_Instance>  (158) 
nan

>  <PDB_ID>  (158) 
nan

>  <Standardized_SMILES>  (158) 
CCc1cc2c(nc1CC)CCN(CC/C(C)=N/OC[C@H]1O[C@H](c3ccccc3)C=C[C@@H]1Oc1ccc(OC)cc1)C2

>  <Name>  (158) 
nan

>  <Pocket>  (158) 
nan

>  <ATP_Site>  (158) 
nan

>  <Peripheral>  (158) 
nan

>  <Num_H_Atoms_ProtBoundConf>  (158) 
nan

>  <Num_Resolved_Atoms>  (158) 
nan

>  <Num_Not_Resolved_Atoms>  (158) 
nan

$$$$
CHEMBL1589752
     RDKit          3D

  0  0  0  0  0  0  0  0  0  0999 V3000
M  V30 BEGIN CTAB
M  V30 COUNTS 55 57 0 0 0
M  V30 BEGIN ATOM
M  V30 1 C 3.197348 -6.882394 0.163144 0
M  V30 2 C 2.883464 -5.475366 -0.201472 0
M  V30 3 C 1.981283 -5.196175 -1.220944 0
M  V30 4 C 1.695469 -3.888576 -1.553224 0
M  V30 5 C 2.289771 -2.838247 -0.891106 0
M  V30 6 C 2.018577 -1.440201 -1.207766 0
M  V30 7 C 1.158389 -1.030989 -2.181119 0
M  V30 8 C 0.900226 0.299811 -2.482684 0
M  V30 9 C 1.560878 1.262101 -1.745074 0
M  V30 10 O 1.370231 2.492060 -1.969644 0
M  V30 11 N 2.409567 0.829659 -0.784513 0
M  V30 12 C 3.087405 1.871323 -0.028138 0
M  V30 13 C 2.303348 2.265056 1.170038 0
M  V30 14 O 2.928378 3.175483 1.802203 0
M  V30 15 N 1.048583 1.728331 1.574677 0
M  V30 16 C 0.428289 2.227076 2.765132 0
M  V30 17 C -0.895937 1.504837 2.990375 0
M  V30 18 C -1.766536 1.774250 1.789935 0
M  V30 19 N -3.067034 1.155040 1.848262 0
M  V30 20 C -3.802574 1.473339 0.666545 0
M  V30 21 C -5.234445 1.005706 0.767281 0
M  V30 22 C -5.275327 -0.451216 1.101436 0
M  V30 23 C -3.911630 -1.041491 1.273533 0
M  V30 24 C -3.050411 -0.211593 2.234339 0
M  V30 25 N 2.630576 -0.428957 -0.525418 0
M  V30 26 C 3.185164 -3.117367 0.120692 0
M  V30 27 C 3.497698 -4.427548 0.483140 0
M  V30 28 H 4.301124 -6.990695 0.202730 0
M  V30 29 H 2.726542 -7.148448 1.134675 0
M  V30 30 H 2.861153 -7.552611 -0.645996 0
M  V30 31 H 1.525967 -6.032353 -1.728002 0
M  V30 32 H 1.001809 -3.707115 -2.336717 0
M  V30 33 H 0.634165 -1.747744 -2.766796 0
M  V30 34 H 0.195721 0.574125 -3.279482 0
M  V30 35 H 3.302685 2.720456 -0.708146 0
M  V30 36 H 4.063048 1.444635 0.290559 0
M  V30 37 H 0.754641 1.000233 0.888801 0
M  V30 38 H 0.238687 3.315618 2.610136 0
M  V30 39 H 1.090020 2.144332 3.661676 0
M  V30 40 H -1.336057 1.998491 3.887418 0
M  V30 41 H -0.701320 0.454776 3.201253 0
M  V30 42 H -1.801939 2.856926 1.648902 0
M  V30 43 H -1.256938 1.333005 0.908144 0
M  V30 44 H -3.312295 1.085566 -0.256348 0
M  V30 45 H -3.835496 2.582239 0.583627 0
M  V30 46 H -5.719274 1.567100 1.588170 0
M  V30 47 H -5.789054 1.237278 -0.147646 0
M  V30 48 H -5.734387 -0.985213 0.227865 0
M  V30 49 H -5.903537 -0.675755 2.011985 0
M  V30 50 H -3.374923 -1.037950 0.314226 0
M  V30 51 H -4.001458 -2.075550 1.625348 0
M  V30 52 H -2.014187 -0.610361 2.060490 0
M  V30 53 H -3.396584 -0.422282 3.248648 0
M  V30 54 H 3.653071 -2.285559 0.641990 0
M  V30 55 H 4.203147 -4.618033 1.280109 0
M  V30 END ATOM
M  V30 BEGIN BOND
M  V30 1 1 1 2
M  V30 2 2 2 3
M  V30 3 1 3 4
M  V30 4 2 4 5
M  V30 5 1 5 6
M  V30 6 1 6 7
M  V30 7 2 7 8
M  V30 8 1 8 9
M  V30 9 2 9 10
M  V30 10 1 9 11
M  V30 11 1 11 12
M  V30 12 1 12 13
M  V30 13 2 13 14
M  V30 14 1 13 15
M  V30 15 1 15 16
M  V30 16 1 16 17
M  V30 17 1 17 18
M  V30 18 1 18 19
M  V30 19 1 19 20
M  V30 20 1 20 21
M  V30 21 1 21 22
M  V30 22 1 22 23
M  V30 23 1 23 24
M  V30 24 1 11 25
M  V30 25 1 5 26
M  V30 26 2 26 27
M  V30 27 1 27 2
M  V30 28 2 25 6
M  V30 29 1 24 19
M  V30 30 1 1 28
M  V30 31 1 1 29
M  V30 32 1 1 30
M  V30 33 1 3 31
M  V30 34 1 4 32
M  V30 35 1 7 33
M  V30 36 1 8 34
M  V30 37 1 12 35
M  V30 38 1 12 36
M  V30 39 1 15 37
M  V30 40 1 16 38
M  V30 41 1 16 39
M  V30 42 1 17 40
M  V30 43 1 17 41
M  V30 44 1 18 42
M  V30 45 1 18 43
M  V30 46 1 20 44
M  V30 47 1 20 45
M  V30 48 1 21 46
M  V30 49 1 21 47
M  V30 50 1 22 48
M  V30 51 1 22 49
M  V30 52 1 23 50
M  V30 53 1 23 51
M  V30 54 1 24 52
M  V30 55 1 24 53
M  V30 56 1 26 54
M  V30 57 1 27 55
M  V30 END BOND
M  V30 END CTAB
M  END
>  <Dataset>  (159) 
ChEMBL_Kinases

>  <Ligand_Instance>  (159) 
nan

>  <PDB_ID>  (159) 
nan

>  <Standardized_SMILES>  (159) 
Cc1ccc(-c2ccc(=O)n(CC(=O)NCCCN3CCCCC3)n2)cc1

>  <Name>  (159) 
nan

>  <Pocket>  (159) 
nan

>  <ATP_Site>  (159) 
nan

>  <Peripheral>  (159) 
nan

>  <Num_H_Atoms_ProtBoundConf>  (159) 
nan

>  <Num_Resolved_Atoms>  (159) 
nan

>  <Num_Not_Resolved_Atoms>  (159) 
nan

$$$$
CHEMBL1589746
     RDKit          3D

  0  0  0  0  0  0  0  0  0  0999 V3000
M  V30 BEGIN CTAB
M  V30 COUNTS 63 67 0 0 0
M  V30 BEGIN ATOM
M  V30 1 C 4.407193 -0.101174 5.304022 0
M  V30 2 C 3.469111 1.094607 5.213487 0
M  V30 3 N 4.183328 2.330351 5.254545 0
M  V30 4 C 4.982041 2.539072 4.058337 0
M  V30 5 C 4.280241 3.478917 3.099655 0
M  V30 6 N 2.836257 3.394078 3.248556 0
M  V30 7 C 1.919846 2.942880 2.260145 0
M  V30 8 C 0.561850 3.125949 2.400393 0
M  V30 9 C -0.338843 2.678813 1.445527 0
M  V30 10 C 0.187815 2.042308 0.348084 0
M  V30 11 N -0.705711 1.555360 -0.678336 0
M  V30 12 C -1.055463 0.250856 -0.292127 0
M  V30 13 O -0.521941 -0.137889 0.803428 0
M  V30 14 C -1.940103 -0.689817 -0.986347 0
M  V30 15 C -2.125993 -1.917426 -0.400502 0
M  V30 16 C -2.949058 -2.867827 -0.987501 0
M  V30 17 C -3.582919 -2.562743 -2.175162 0
M  V30 18 C -3.387425 -1.309059 -2.765139 0
M  V30 19 C -2.556496 -0.350747 -2.171549 0
M  V30 20 N -4.123332 -1.302924 -3.895414 0
M  V30 21 C -4.757643 -2.504180 -4.014364 0
M  V30 22 O -5.608319 -2.826794 -5.087611 0
M  V30 23 N -4.428577 -3.287116 -2.955576 0
M  V30 24 C -4.913626 -4.632395 -2.738706 0
M  V30 25 C -4.082803 -5.682499 -3.328591 0
M  V30 26 C -4.340847 -6.125454 -4.614539 0
M  V30 27 C -3.517133 -7.128695 -5.127617 0
M  V30 28 C -2.460725 -7.707338 -4.431985 0
M  V30 29 F -1.724534 -8.679973 -5.034066 0
M  V30 30 C -2.209707 -7.260824 -3.150933 0
M  V30 31 C -3.033158 -6.265538 -2.653054 0
M  V30 32 C 1.540135 1.823962 0.141344 0
M  V30 33 C 2.401349 2.297907 1.139989 0
M  V30 34 C 2.441746 3.828639 4.572359 0
M  V30 35 C 3.428807 3.479784 5.624903 0
M  V30 36 H 4.180868 -0.864890 4.530892 0
M  V30 37 H 4.442463 -0.524786 6.329463 0
M  V30 38 H 5.443210 0.273783 5.077407 0
M  V30 39 H 2.667343 1.003850 5.947840 0
M  V30 40 H 3.017751 1.030686 4.180420 0
M  V30 41 H 6.017086 2.853647 4.293966 0
M  V30 42 H 5.049973 1.557039 3.548382 0
M  V30 43 H 4.590016 4.512378 3.374559 0
M  V30 44 H 4.555960 3.340766 2.053530 0
M  V30 45 H 0.116615 3.621627 3.247793 0
M  V30 46 H -1.390883 2.821548 1.555383 0
M  V30 47 H -1.132317 1.888555 -1.572087 0
M  V30 48 H -1.665927 -2.246079 0.537045 0
M  V30 49 H -3.106832 -3.850825 -0.531618 0
M  V30 50 H -2.410747 0.618495 -2.636940 0
M  V30 51 H -6.426844 -3.385449 -4.842423 0
M  V30 52 H -5.948513 -4.751225 -3.122950 0
M  V30 53 H -4.981085 -4.815941 -1.633688 0
M  V30 54 H -5.142599 -5.718767 -5.204341 0
M  V30 55 H -3.710163 -7.489613 -6.146959 0
M  V30 56 H -1.401957 -7.681138 -2.578614 0
M  V30 57 H -2.778260 -5.959136 -1.631979 0
M  V30 58 H 1.870190 1.315948 -0.747840 0
M  V30 59 H 3.438992 2.098348 0.924632 0
M  V30 60 H 2.318788 4.951894 4.571351 0
M  V30 61 H 1.437711 3.370456 4.746634 0
M  V30 62 H 4.129134 4.328405 5.761348 0
M  V30 63 H 2.889200 3.244786 6.563432 0
M  V30 END ATOM
M  V30 BEGIN BOND
M  V30 1 1 1 2
M  V30 2 1 2 3
M  V30 3 1 3 4
M  V30 4 1 4 5
M  V30 5 1 5 6
M  V30 6 1 6 7
M  V30 7 2 7 8
M  V30 8 1 8 9
M  V30 9 2 9 10
M  V30 10 1 10 11
M  V30 11 1 11 12
M  V30 12 2 12 13
M  V30 13 1 12 14
M  V30 14 2 14 15
M  V30 15 1 15 16
M  V30 16 2 16 17
M  V30 17 1 17 18
M  V30 18 2 18 19
M  V30 19 1 18 20
M  V30 20 2 20 21
M  V30 21 1 21 22
M  V30 22 1 21 23
M  V30 23 1 23 24
M  V30 24 1 24 25
M  V30 25 2 25 26
M  V30 26 1 26 27
M  V30 27 2 27 28
M  V30 28 1 28 29
M  V30 29 1 28 30
M  V30 30 2 30 31
M  V30 31 1 10 32
M  V30 32 2 32 33
M  V30 33 1 6 34
M  V30 34 1 34 35
M  V30 35 1 35 3
M  V30 36 1 33 7
M  V30 37 1 19 14
M  V30 38 1 31 25
M  V30 39 1 23 17
M  V30 40 1 1 36
M  V30 41 1 1 37
M  V30 42 1 1 38
M  V30 43 1 2 39
M  V30 44 1 2 40
M  V30 45 1 4 41
M  V30 46 1 4 42
M  V30 47 1 5 43
M  V30 48 1 5 44
M  V30 49 1 8 45
M  V30 50 1 9 46
M  V30 51 1 11 47
M  V30 52 1 15 48
M  V30 53 1 16 49
M  V30 54 1 19 50
M  V30 55 1 22 51
M  V30 56 1 24 52
M  V30 57 1 24 53
M  V30 58 1 26 54
M  V30 59 1 27 55
M  V30 60 1 30 56
M  V30 61 1 31 57
M  V30 62 1 32 58
M  V30 63 1 33 59
M  V30 64 1 34 60
M  V30 65 1 34 61
M  V30 66 1 35 62
M  V30 67 1 35 63
M  V30 END BOND
M  V30 END CTAB
M  END
>  <Dataset>  (160) 
ChEMBL_Kinases

>  <Ligand_Instance>  (160) 
nan

>  <PDB_ID>  (160) 
nan

>  <Standardized_SMILES>  (160) 
CCN1CCN(c2ccc(NC(=O)c3ccc4c(c3)nc(O)n4Cc3ccc(F)cc3)cc2)CC1

>  <Name>  (160) 
nan

>  <Pocket>  (160) 
nan

>  <ATP_Site>  (160) 
nan

>  <Peripheral>  (160) 
nan

>  <Num_H_Atoms_ProtBoundConf>  (160) 
nan

>  <Num_Resolved_Atoms>  (160) 
nan

>  <Num_Not_Resolved_Atoms>  (160) 
nan

$$$$
CHEMBL1589719
     RDKit          3D

  0  0  0  0  0  0  0  0  0  0999 V3000
M  V30 BEGIN CTAB
M  V30 COUNTS 27 27 0 0 0
M  V30 BEGIN ATOM
M  V30 1 C -1.792519 -3.396897 4.302706 0
M  V30 2 C -1.260653 -2.624069 3.154243 0
M  V30 3 O -1.880656 -1.620242 2.669656 0
M  V30 4 N -0.047109 -2.911357 2.496867 0
M  V30 5 C 0.222336 -2.011769 1.428684 0
M  V30 6 C 0.936117 -0.869003 1.720437 0
M  V30 7 C 1.167913 -0.034130 0.649542 0
M  V30 8 C 0.755652 -0.244231 -0.648303 0
M  V30 9 N 0.975324 0.579693 -1.765767 0
M  V30 10 S 0.794168 2.246994 -2.147708 0
M  V30 11 O 1.151039 2.482382 -3.582761 0
M  V30 12 O -0.651381 2.651024 -1.978001 0
M  V30 13 C 1.769227 3.329645 -1.171776 0
M  V30 14 F 1.488813 4.625659 -1.652471 0
M  V30 15 F 1.385779 3.389001 0.158136 0
M  V30 16 F 3.128582 3.159460 -1.337544 0
M  V30 17 C 0.040459 -1.438594 -0.818364 0
M  V30 18 C -0.247345 -2.342654 0.177807 0
M  V30 19 H -2.163646 -4.397194 4.034338 0
M  V30 20 H -1.046911 -3.487946 5.119012 0
M  V30 21 H -2.672057 -2.813130 4.702681 0
M  V30 22 H 0.526901 -3.717442 2.827481 0
M  V30 23 H 1.298618 -0.621490 2.705218 0
M  V30 24 H 1.727677 0.859995 0.848722 0
M  V30 25 H 1.358803 -0.032368 -2.553221 0
M  V30 26 H -0.312949 -1.665495 -1.815738 0
M  V30 27 H -0.806521 -3.240203 -0.045641 0
M  V30 END ATOM
M  V30 BEGIN BOND
M  V30 1 1 1 2
M  V30 2 2 2 3
M  V30 3 1 2 4
M  V30 4 1 4 5
M  V30 5 2 5 6
M  V30 6 1 6 7
M  V30 7 2 7 8
M  V30 8 1 8 9
M  V30 9 1 9 10
M  V30 10 2 10 11
M  V30 11 2 10 12
M  V30 12 1 10 13
M  V30 13 1 13 14
M  V30 14 1 13 15
M  V30 15 1 13 16
M  V30 16 1 8 17
M  V30 17 2 17 18
M  V30 18 1 18 5
M  V30 19 1 1 19
M  V30 20 1 1 20
M  V30 21 1 1 21
M  V30 22 1 4 22
M  V30 23 1 6 23
M  V30 24 1 7 24
M  V30 25 1 9 25
M  V30 26 1 17 26
M  V30 27 1 18 27
M  V30 END BOND
M  V30 END CTAB
M  END
>  <Dataset>  (161) 
ChEMBL_Kinases

>  <Ligand_Instance>  (161) 
nan

>  <PDB_ID>  (161) 
nan

>  <Standardized_SMILES>  (161) 
CC(=O)Nc1ccc(NS(=O)(=O)C(F)(F)F)cc1

>  <Name>  (161) 
nan

>  <Pocket>  (161) 
nan

>  <ATP_Site>  (161) 
nan

>  <Peripheral>  (161) 
nan

>  <Num_H_Atoms_ProtBoundConf>  (161) 
nan

>  <Num_Resolved_Atoms>  (161) 
nan

>  <Num_Not_Resolved_Atoms>  (161) 
nan

$$$$
CHEMBL1589618
     RDKit          3D

  0  0  0  0  0  0  0  0  0  0999 V3000
M  V30 BEGIN CTAB
M  V30 COUNTS 35 36 0 0 0
M  V30 BEGIN ATOM
M  V30 1 C -1.682947 -3.892347 3.028663 0
M  V30 2 C -0.171560 -4.058284 2.920996 0
M  V30 3 O 0.304070 -3.268410 1.849586 0
M  V30 4 C 0.165238 -1.911232 1.766758 0
M  V30 5 O -0.457651 -1.569719 2.827053 0
M  V30 6 C 0.656659 -1.095617 0.659927 0
M  V30 7 C 1.326969 -1.562402 -0.456360 0
M  V30 8 N 1.680024 -2.906017 -0.770914 0
M  V30 9 C 1.572571 -0.416799 -1.193342 0
M  V30 10 C 2.254571 -0.370453 -2.458959 0
M  V30 11 N 2.817052 -0.313129 -3.489690 0
M  V30 12 C 1.062989 0.681387 -0.529880 0
M  V30 13 N 0.505086 0.241214 0.605637 0
M  V30 14 C -0.162970 1.008777 1.642786 0
M  V30 15 C -0.614139 2.356045 1.153026 0
M  V30 16 C -1.186438 2.134845 -0.234442 0
M  V30 17 C -0.186708 2.744519 -1.195518 0
M  V30 18 C 1.137366 2.074446 -1.013616 0
M  V30 19 H -2.058375 -3.416666 2.076571 0
M  V30 20 H -2.213704 -4.856039 3.141802 0
M  V30 21 H -1.962273 -3.164044 3.829581 0
M  V30 22 H 0.256690 -3.804229 3.891413 0
M  V30 23 H 0.047397 -5.118550 2.677642 0
M  V30 24 H 1.041074 -3.220905 -1.555683 0
M  V30 25 H 2.438715 -3.435103 -0.284255 0
M  V30 26 H -1.121333 0.448485 1.852042 0
M  V30 27 H 0.382320 1.026325 2.599588 0
M  V30 28 H 0.195734 3.110700 1.176404 0
M  V30 29 H -1.418828 2.695855 1.835520 0
M  V30 30 H -2.185180 2.602336 -0.353969 0
M  V30 31 H -1.298142 1.075986 -0.508816 0
M  V30 32 H -0.098138 3.818868 -0.898749 0
M  V30 33 H -0.594375 2.711177 -2.207538 0
M  V30 34 H 1.813508 2.681946 -0.348293 0
M  V30 35 H 1.648888 2.095581 -2.005679 0
M  V30 END ATOM
M  V30 BEGIN BOND
M  V30 1 1 1 2
M  V30 2 1 2 3
M  V30 3 1 3 4
M  V30 4 2 4 5
M  V30 5 1 4 6
M  V30 6 2 6 7
M  V30 7 1 7 8
M  V30 8 1 7 9
M  V30 9 1 9 10
M  V30 10 3 10 11
M  V30 11 2 9 12
M  V30 12 1 12 13
M  V30 13 1 13 14
M  V30 14 1 14 15
M  V30 15 1 15 16
M  V30 16 1 16 17
M  V30 17 1 17 18
M  V30 18 1 13 6
M  V30 19 1 18 12
M  V30 20 1 1 19
M  V30 21 1 1 20
M  V30 22 1 1 21
M  V30 23 1 2 22
M  V30 24 1 2 23
M  V30 25 1 8 24
M  V30 26 1 8 25
M  V30 27 1 14 26
M  V30 28 1 14 27
M  V30 29 1 15 28
M  V30 30 1 15 29
M  V30 31 1 16 30
M  V30 32 1 16 31
M  V30 33 1 17 32
M  V30 34 1 17 33
M  V30 35 1 18 34
M  V30 36 1 18 35
M  V30 END BOND
M  V30 END CTAB
M  END
>  <Dataset>  (162) 
ChEMBL_Kinases

>  <Ligand_Instance>  (162) 
nan

>  <PDB_ID>  (162) 
nan

>  <Standardized_SMILES>  (162) 
CCOC(=O)c1c(N)c(C#N)c2n1CCCCC2

>  <Name>  (162) 
nan

>  <Pocket>  (162) 
nan

>  <ATP_Site>  (162) 
nan

>  <Peripheral>  (162) 
nan

>  <Num_H_Atoms_ProtBoundConf>  (162) 
nan

>  <Num_Resolved_Atoms>  (162) 
nan

>  <Num_Not_Resolved_Atoms>  (162) 
nan

$$$$
CHEMBL1589095
     RDKit          3D

  0  0  0  0  0  0  0  0  0  0999 V3000
M  V30 BEGIN CTAB
M  V30 COUNTS 32 34 0 0 0
M  V30 BEGIN ATOM
M  V30 1 O 0.196820 -0.607740 2.627239 0
M  V30 2 C 1.456265 -0.531076 2.427160 0
M  V30 3 C 2.292693 -1.691564 2.742043 0
M  V30 4 C 2.113204 -2.819867 1.765825 0
M  V30 5 C 2.594660 -4.066579 2.085673 0
M  V30 6 C 2.433641 -5.094826 1.175751 0
M  V30 7 C 1.812394 -4.939747 -0.044977 0
M  V30 8 C 1.337608 -3.677795 -0.341138 0
M  V30 9 C 1.485709 -2.620499 0.557191 0
M  V30 10 F 1.007152 -1.391239 0.230306 0
M  V30 11 N 1.862691 0.701115 1.912770 0
M  V30 12 C 0.608548 1.519069 1.786780 0
M  V30 13 N -0.145506 1.443393 0.930946 0
M  V30 14 C -1.249284 2.142553 0.729425 0
M  V30 15 C -2.119660 1.904454 -0.441128 0
M  V30 16 C -3.271093 2.601143 -0.860200 0
M  V30 17 C -3.882212 2.157031 -2.000498 0
M  V30 18 C -3.419455 1.080047 -2.729240 0
M  V30 19 S -1.907119 0.599273 -1.689152 0
M  V30 20 C -1.525238 3.111416 1.707180 0
M  V30 21 S -0.063927 2.884035 2.881944 0
M  V30 22 H 1.956027 -2.155821 3.723648 0
M  V30 23 H 3.334816 -1.401580 2.820707 0
M  V30 24 H 3.094909 -4.315251 3.007913 0
M  V30 25 H 2.797259 -6.114482 1.376477 0
M  V30 26 H 1.701722 -5.781674 -0.745032 0
M  V30 27 H 0.850415 -3.554481 -1.306159 0
M  V30 28 H 2.864921 0.871153 1.705778 0
M  V30 29 H -3.631980 3.442942 -0.291446 0
M  V30 30 H -4.769743 2.611630 -2.418359 0
M  V30 31 H -3.661866 0.578096 -3.547313 0
M  V30 32 H -2.456485 3.772575 1.627261 0
M  V30 END ATOM
M  V30 BEGIN BOND
M  V30 1 2 1 2
M  V30 2 1 2 3
M  V30 3 1 3 4
M  V30 4 2 4 5
M  V30 5 1 5 6
M  V30 6 2 6 7
M  V30 7 1 7 8
M  V30 8 2 8 9
M  V30 9 1 9 10
M  V30 10 1 2 11
M  V30 11 1 11 12
M  V30 12 2 12 13
M  V30 13 1 13 14
M  V30 14 1 14 15
M  V30 15 2 15 16
M  V30 16 1 16 17
M  V30 17 2 17 18
M  V30 18 1 18 19
M  V30 19 2 14 20
M  V30 20 1 20 21
M  V30 21 1 9 4
M  V30 22 1 21 12
M  V30 23 1 19 15
M  V30 24 1 3 22
M  V30 25 1 3 23
M  V30 26 1 5 24
M  V30 27 1 6 25
M  V30 28 1 7 26
M  V30 29 1 8 27
M  V30 30 1 11 28
M  V30 31 1 16 29
M  V30 32 1 17 30
M  V30 33 1 18 31
M  V30 34 1 20 32
M  V30 END BOND
M  V30 END CTAB
M  END
>  <Dataset>  (163) 
ChEMBL_Kinases

>  <Ligand_Instance>  (163) 
nan

>  <PDB_ID>  (163) 
nan

>  <Standardized_SMILES>  (163) 
O=C(Cc1ccccc1F)Nc1nc(-c2cccs2)cs1

>  <Name>  (163) 
nan

>  <Pocket>  (163) 
nan

>  <ATP_Site>  (163) 
nan

>  <Peripheral>  (163) 
nan

>  <Num_H_Atoms_ProtBoundConf>  (163) 
nan

>  <Num_Resolved_Atoms>  (163) 
nan

>  <Num_Not_Resolved_Atoms>  (163) 
nan

$$$$
CHEMBL1582065
     RDKit          3D

  0  0  0  0  0  0  0  0  0  0999 V3000
M  V30 BEGIN CTAB
M  V30 COUNTS 53 55 0 0 0
M  V30 BEGIN ATOM
M  V30 1 C 1.568386 -6.229490 4.857303 0
M  V30 2 C 1.738469 -4.828656 4.385382 0
M  V30 3 O 1.299284 -4.001418 5.249476 0
M  V30 4 C 2.326779 -4.449636 3.109275 0
M  V30 5 C 2.810645 -5.319882 2.154233 0
M  V30 6 C 3.352408 -4.839729 0.968495 0
M  V30 7 C 3.426010 -3.488253 0.704419 0
M  V30 8 C 2.936999 -2.649976 1.672896 0
M  V30 9 N 3.008941 -1.249469 1.407916 0
M  V30 10 C 1.871453 -0.717108 0.748061 0
M  V30 11 O 1.054130 -1.664985 0.558370 0
M  V30 12 N 1.873125 0.678271 0.450518 0
M  V30 13 C 2.912083 1.658901 0.739925 0
M  V30 14 C 2.143822 2.911129 1.148465 0
M  V30 15 C 0.719797 2.667641 0.711058 0
M  V30 16 C 0.871358 1.495386 -0.205863 0
M  V30 17 C -0.434359 0.782581 -0.363780 0
M  V30 18 O -1.071204 -0.286607 -0.157977 0
M  V30 19 N -1.365738 1.665481 -1.021780 0
M  V30 20 C -2.712653 1.230611 -1.302402 0
M  V30 21 C -3.680666 1.456384 -0.353093 0
M  V30 22 C -5.006323 1.076921 -0.525232 0
M  V30 23 C -6.046240 1.321586 0.499262 0
M  V30 24 C -5.316801 0.449418 -1.717076 0
M  V30 25 C -4.368462 0.205725 -2.695245 0
M  V30 26 C -3.072795 0.600917 -2.474980 0
M  V30 27 C -2.007988 0.366005 -3.490684 0
M  V30 28 C 2.392137 -3.092371 2.862209 0
M  V30 29 H 0.554508 -6.372534 5.291924 0
M  V30 30 H 2.322809 -6.456176 5.641836 0
M  V30 31 H 1.609317 -6.911490 3.986127 0
M  V30 32 H 2.744858 -6.376625 2.378140 0
M  V30 33 H 3.715362 -5.574552 0.258765 0
M  V30 34 H 3.853275 -3.128484 -0.229180 0
M  V30 35 H 3.873445 -0.706191 1.706625 0
M  V30 36 H 3.454129 1.887585 -0.196134 0
M  V30 37 H 3.562112 1.301317 1.546242 0
M  V30 38 H 2.563636 3.803022 0.608888 0
M  V30 39 H 2.217747 3.042363 2.234912 0
M  V30 40 H 0.346533 3.567293 0.181282 0
M  V30 41 H 0.103166 2.399459 1.569547 0
M  V30 42 H 1.222979 1.808962 -1.206419 0
M  V30 43 H -1.340702 2.642005 -1.396132 0
M  V30 44 H -3.436462 1.955415 0.596005 0
M  V30 45 H -6.859892 0.579841 0.315773 0
M  V30 46 H -5.654883 1.164237 1.545382 0
M  V30 47 H -6.369726 2.364845 0.386886 0
M  V30 48 H -6.359128 0.148760 -1.857388 0
M  V30 49 H -4.656283 -0.288256 -3.612660 0
M  V30 50 H -1.539405 -0.629066 -3.242919 0
M  V30 51 H -1.182780 1.110618 -3.422637 0
M  V30 52 H -2.411348 0.267104 -4.506738 0
M  V30 53 H 2.030205 -2.362809 3.570327 0
M  V30 END ATOM
M  V30 BEGIN BOND
M  V30 1 1 1 2
M  V30 2 2 2 3
M  V30 3 1 2 4
M  V30 4 2 4 5
M  V30 5 1 5 6
M  V30 6 2 6 7
M  V30 7 1 7 8
M  V30 8 1 8 9
M  V30 9 1 9 10
M  V30 10 2 10 11
M  V30 11 1 10 12
M  V30 12 1 12 13
M  V30 13 1 13 14
M  V30 14 1 14 15
M  V30 15 1 15 16
M  V30 16 1 16 17
M  V30 17 2 17 18
M  V30 18 1 17 19
M  V30 19 1 19 20
M  V30 20 2 20 21
M  V30 21 1 21 22
M  V30 22 1 22 23
M  V30 23 2 22 24
M  V30 24 1 24 25
M  V30 25 2 25 26
M  V30 26 1 26 27
M  V30 27 2 8 28
M  V30 28 1 28 4
M  V30 29 1 16 12
M  V30 30 1 26 20
M  V30 31 1 1 29
M  V30 32 1 1 30
M  V30 33 1 1 31
M  V30 34 1 5 32
M  V30 35 1 6 33
M  V30 36 1 7 34
M  V30 37 1 9 35
M  V30 38 1 13 36
M  V30 39 1 13 37
M  V30 40 1 14 38
M  V30 41 1 14 39
M  V30 42 1 15 40
M  V30 43 1 15 41
M  V30 44 1 16 42
M  V30 45 1 19 43
M  V30 46 1 21 44
M  V30 47 1 23 45
M  V30 48 1 23 46
M  V30 49 1 23 47
M  V30 50 1 24 48
M  V30 51 1 25 49
M  V30 52 1 27 50
M  V30 53 1 27 51
M  V30 54 1 27 52
M  V30 55 1 28 53
M  V30 END BOND
M  V30 END CTAB
M  END
>  <Dataset>  (164) 
ChEMBL_Kinases

>  <Ligand_Instance>  (164) 
nan

>  <PDB_ID>  (164) 
nan

>  <Standardized_SMILES>  (164) 
CC(=O)c1cccc(NC(=O)N2CCCC2C(=O)Nc2cc(C)ccc2C)c1

>  <Name>  (164) 
nan

>  <Pocket>  (164) 
nan

>  <ATP_Site>  (164) 
nan

>  <Peripheral>  (164) 
nan

>  <Num_H_Atoms_ProtBoundConf>  (164) 
nan

>  <Num_Resolved_Atoms>  (164) 
nan

>  <Num_Not_Resolved_Atoms>  (164) 
nan

$$$$
CHEMBL1587950
     RDKit          3D

  0  0  0  0  0  0  0  0  0  0999 V3000
M  V30 BEGIN CTAB
M  V30 COUNTS 42 42 0 0 0
M  V30 BEGIN ATOM
M  V30 1 C -0.918614 -5.137995 5.246341 0
M  V30 2 C -0.793434 -4.294844 4.014440 0
M  V30 3 C -1.870702 -3.503919 3.664859 0
M  V30 4 C -1.788058 -2.710109 2.528818 0
M  V30 5 C -0.658999 -2.681882 1.728689 0
M  V30 6 N -0.589191 -1.852277 0.552529 0
M  V30 7 C -0.077716 -0.559224 0.826573 0
M  V30 8 O 0.248044 -0.283448 2.019266 0
M  V30 9 N 0.088375 0.434344 -0.150761 0
M  V30 10 C 0.619336 1.773323 0.140383 0 CFG=1
M  V30 11 C 1.919733 2.018643 -0.534233 0
M  V30 12 C 1.899651 1.918025 -2.014158 0
M  V30 13 C 0.953090 2.918173 -2.601715 0
M  V30 14 C 3.259005 2.178251 -2.640248 0
M  V30 15 C -0.392478 2.835723 0.004604 0
M  V30 16 O -0.362679 4.105108 0.160930 0
M  V30 17 O -1.733446 2.973200 -0.323336 0
M  V30 18 C 0.421704 -3.487934 2.096541 0
M  V30 19 C 1.632799 -3.484645 1.275008 0
M  V30 20 C 0.344762 -4.281365 3.228216 0
M  V30 21 H 0.095380 -5.532127 5.472189 0
M  V30 22 H -1.677731 -5.925005 5.157809 0
M  V30 23 H -1.198513 -4.484127 6.123309 0
M  V30 24 H -2.782090 -3.481421 4.249122 0
M  V30 25 H -2.654504 -2.093469 2.274200 0
M  V30 26 H -0.849633 -2.050817 -0.441503 0
M  V30 27 H -0.174903 0.235583 -1.159843 0
M  V30 28 H 0.812709 1.716303 1.265704 0
M  V30 29 H 2.262004 3.040888 -0.193041 0
M  V30 30 H 2.700554 1.338636 -0.087140 0
M  V30 31 H 1.650735 0.872680 -2.298498 0
M  V30 32 H 1.103193 3.046732 -3.700987 0
M  V30 33 H 1.127315 3.896889 -2.110104 0
M  V30 34 H -0.087315 2.630942 -2.457217 0
M  V30 35 H 3.870811 1.272384 -2.444732 0
M  V30 36 H 3.112939 2.376688 -3.721077 0
M  V30 37 H 3.757759 3.055491 -2.168787 0
M  V30 38 H -2.506979 2.908269 0.324922 0
M  V30 39 H 2.400315 -2.751828 1.640282 0
M  V30 40 H 1.398060 -3.339518 0.203871 0
M  V30 41 H 2.119987 -4.482623 1.348767 0
M  V30 42 H 1.183614 -4.920242 3.531719 0
M  V30 END ATOM
M  V30 BEGIN BOND
M  V30 1 1 1 2
M  V30 2 2 2 3
M  V30 3 1 3 4
M  V30 4 2 4 5
M  V30 5 1 5 6
M  V30 6 1 6 7
M  V30 7 2 7 8
M  V30 8 1 7 9
M  V30 9 1 9 10
M  V30 10 1 10 11
M  V30 11 1 11 12
M  V30 12 1 12 13
M  V30 13 1 12 14
M  V30 14 1 10 15
M  V30 15 2 15 16
M  V30 16 1 15 17
M  V30 17 1 5 18
M  V30 18 1 18 19
M  V30 19 2 18 20
M  V30 20 1 20 2
M  V30 21 1 1 21
M  V30 22 1 1 22
M  V30 23 1 1 23
M  V30 24 1 3 24
M  V30 25 1 4 25
M  V30 26 1 6 26
M  V30 27 1 9 27
M  V30 28 1 10 28 CFG=1
M  V30 29 1 11 29
M  V30 30 1 11 30
M  V30 31 1 12 31
M  V30 32 1 13 32
M  V30 33 1 13 33
M  V30 34 1 13 34
M  V30 35 1 14 35
M  V30 36 1 14 36
M  V30 37 1 14 37
M  V30 38 1 17 38
M  V30 39 1 19 39
M  V30 40 1 19 40
M  V30 41 1 19 41
M  V30 42 1 20 42
M  V30 END BOND
M  V30 END CTAB
M  END
>  <Dataset>  (165) 
ChEMBL_Kinases

>  <Ligand_Instance>  (165) 
nan

>  <PDB_ID>  (165) 
nan

>  <Standardized_SMILES>  (165) 
Cc1ccc(NC(=O)N[C@@H](CC(C)C)C(=O)O)c(C)c1

>  <Name>  (165) 
nan

>  <Pocket>  (165) 
nan

>  <ATP_Site>  (165) 
nan

>  <Peripheral>  (165) 
nan

>  <Num_H_Atoms_ProtBoundConf>  (165) 
nan

>  <Num_Resolved_Atoms>  (165) 
nan

>  <Num_Not_Resolved_Atoms>  (165) 
nan

$$$$
CHEMBL1587962
     RDKit          3D

  0  0  0  0  0  0  0  0  0  0999 V3000
M  V30 BEGIN CTAB
M  V30 COUNTS 60 64 0 0 0
M  V30 BEGIN ATOM
M  V30 1 O -1.142997 -2.682800 4.026868 0
M  V30 2 C -0.951419 -1.862302 3.066436 0
M  V30 3 C 0.281757 -1.072460 2.710564 0
M  V30 4 C -0.305418 0.242076 2.309806 0
M  V30 5 N -0.529350 1.056496 3.486506 0
M  V30 6 C 0.671450 1.336826 4.213094 0
M  V30 7 C 1.764734 1.901016 3.331636 0
M  V30 8 N 1.189660 3.019959 2.601514 0
M  V30 9 C 1.962139 3.574176 1.552211 0
M  V30 10 C 3.205198 3.038474 1.304929 0
M  V30 11 C 4.012524 3.543117 0.282571 0
M  V30 12 C 3.602087 4.591086 -0.516170 0
M  V30 13 F 4.404679 5.062637 -1.501954 0
M  V30 14 C 2.370712 5.122315 -0.271667 0
M  V30 15 C 1.589454 4.614355 0.737406 0
M  V30 16 C -0.111395 3.435892 3.040687 0
M  V30 17 C -1.127979 2.333315 3.137001 0
M  V30 18 C -1.585237 -0.150864 1.663352 0
M  V30 19 O -2.398439 0.435036 0.869481 0
M  V30 20 N -1.919854 -1.493622 2.062829 0
M  V30 21 C -3.003635 -2.369332 1.592900 0
M  V30 22 C -2.499203 -3.167815 0.417765 0
M  V30 23 C -1.880265 -4.400037 0.504053 0
M  V30 24 C -1.472807 -5.004865 -0.668471 0
M  V30 25 C -1.667492 -4.414759 -1.902155 0
M  V30 26 N -1.235958 -5.056646 -3.108545 0
M  V30 27 C -1.635264 -5.957990 -4.146272 0
M  V30 28 C -0.367431 -6.651604 -4.591067 0
M  V30 29 C 0.784315 -5.728523 -4.298603 0
M  V30 30 C 0.114392 -4.692590 -3.465171 0
M  V30 31 O 0.853767 -3.690383 -3.227086 0
M  V30 32 C -2.282438 -3.184627 -2.023792 0
M  V30 33 C -2.684814 -2.590937 -0.844186 0
M  V30 34 H 1.008109 -1.053613 3.521160 0
M  V30 35 H 0.728278 -1.572688 1.806509 0
M  V30 36 H 0.369737 0.799912 1.622236 0
M  V30 37 H 1.037779 0.492935 4.821686 0
M  V30 38 H 0.411307 2.182953 4.915916 0
M  V30 39 H 2.176873 1.113857 2.653005 0
M  V30 40 H 2.599851 2.216502 3.988500 0
M  V30 41 H 3.670695 2.221346 1.836586 0
M  V30 42 H 5.002929 3.139184 0.062678 0
M  V30 43 H 2.052752 5.941929 -0.898227 0
M  V30 44 H 0.631960 5.065262 0.889330 0
M  V30 45 H -0.497959 4.183045 2.320228 0
M  V30 46 H 0.038269 3.966155 4.003960 0
M  V30 47 H -1.717646 2.226555 2.203749 0
M  V30 48 H -1.856055 2.587325 3.940944 0
M  V30 49 H -3.825955 -1.733190 1.267174 0
M  V30 50 H -3.357475 -3.013825 2.405011 0
M  V30 51 H -1.756958 -4.808090 1.491157 0
M  V30 52 H -0.989211 -5.967246 -0.603361 0
M  V30 53 H -1.998327 -5.376125 -5.017717 0
M  V30 54 H -2.370360 -6.722740 -3.802093 0
M  V30 55 H -0.355085 -6.874720 -5.673973 0
M  V30 56 H -0.209447 -7.616317 -4.064122 0
M  V30 57 H 1.241013 -5.320279 -5.223144 0
M  V30 58 H 1.533692 -6.232484 -3.660023 0
M  V30 59 H -2.445266 -2.705013 -2.974426 0
M  V30 60 H -3.172292 -1.620219 -0.914346 0
M  V30 END ATOM
M  V30 BEGIN BOND
M  V30 1 2 1 2
M  V30 2 1 2 3
M  V30 3 1 3 4
M  V30 4 1 4 5
M  V30 5 1 5 6
M  V30 6 1 6 7
M  V30 7 1 7 8
M  V30 8 1 8 9
M  V30 9 2 9 10
M  V30 10 1 10 11
M  V30 11 2 11 12
M  V30 12 1 12 13
M  V30 13 1 12 14
M  V30 14 2 14 15
M  V30 15 1 8 16
M  V30 16 1 16 17
M  V30 17 1 4 18
M  V30 18 2 18 19
M  V30 19 1 18 20
M  V30 20 1 20 21
M  V30 21 1 21 22
M  V30 22 2 22 23
M  V30 23 1 23 24
M  V30 24 2 24 25
M  V30 25 1 25 26
M  V30 26 1 26 27
M  V30 27 1 27 28
M  V30 28 1 28 29
M  V30 29 1 29 30
M  V30 30 2 30 31
M  V30 31 1 25 32
M  V30 32 2 32 33
M  V30 33 1 20 2
M  V30 34 1 33 22
M  V30 35 1 17 5
M  V30 36 1 30 26
M  V30 37 1 15 9
M  V30 38 1 3 34
M  V30 39 1 3 35
M  V30 40 1 4 36
M  V30 41 1 6 37
M  V30 42 1 6 38
M  V30 43 1 7 39
M  V30 44 1 7 40
M  V30 45 1 10 41
M  V30 46 1 11 42
M  V30 47 1 14 43
M  V30 48 1 15 44
M  V30 49 1 16 45
M  V30 50 1 16 46
M  V30 51 1 17 47
M  V30 52 1 17 48
M  V30 53 1 21 49
M  V30 54 1 21 50
M  V30 55 1 23 51
M  V30 56 1 24 52
M  V30 57 1 27 53
M  V30 58 1 27 54
M  V30 59 1 28 55
M  V30 60 1 28 56
M  V30 61 1 29 57
M  V30 62 1 29 58
M  V30 63 1 32 59
M  V30 64 1 33 60
M  V30 END BOND
M  V30 END CTAB
M  END
>  <Dataset>  (166) 
ChEMBL_Kinases

>  <Ligand_Instance>  (166) 
nan

>  <PDB_ID>  (166) 
nan

>  <Standardized_SMILES>  (166) 
O=C1CC(N2CCN(c3ccc(F)cc3)CC2)C(=O)N1Cc1ccc(N2CCCC2=O)cc1

>  <Name>  (166) 
nan

>  <Pocket>  (166) 
nan

>  <ATP_Site>  (166) 
nan

>  <Peripheral>  (166) 
nan

>  <Num_H_Atoms_ProtBoundConf>  (166) 
nan

>  <Num_Resolved_Atoms>  (166) 
nan

>  <Num_Not_Resolved_Atoms>  (166) 
nan

$$$$
CHEMBL1587997
     RDKit          3D

  0  0  0  0  0  0  0  0  0  0999 V3000
M  V30 BEGIN CTAB
M  V30 COUNTS 50 52 0 0 0
M  V30 BEGIN ATOM
M  V30 1 C -0.555466 -5.759875 1.831140 0
M  V30 2 C -0.320720 -4.986365 0.560000 0
M  V30 3 C 0.288944 -3.753370 0.529097 0
M  V30 4 C 0.268082 -3.468780 -0.814808 0
M  V30 5 C 0.825542 -2.207923 -1.237655 0
M  V30 6 O 1.374561 -1.305650 -0.541437 0
M  V30 7 C 1.179705 -1.183465 -2.229068 0
M  V30 8 O 1.837085 -0.138910 -1.526694 0
M  V30 9 C 2.304189 1.030730 -2.037668 0
M  V30 10 O 1.867602 0.615562 -3.135422 0
M  V30 11 C 2.921901 1.807288 -0.916669 0
M  V30 12 C 1.821710 2.211857 -0.004019 0
M  V30 13 C 2.214959 3.001466 1.187964 0
M  V30 14 N 0.985027 3.257637 1.953506 0
M  V30 15 C 0.641294 2.279017 2.940382 0
M  V30 16 O 1.208699 1.190308 3.296683 0
M  V30 17 C -0.596551 2.669651 3.620789 0
M  V30 18 C -1.374488 2.121129 4.634748 0
M  V30 19 C -2.534957 2.751961 5.081289 0
M  V30 20 C -2.854298 3.941407 4.456544 0
M  V30 21 C -2.118868 4.536498 3.441935 0
M  V30 22 C -0.982199 3.867724 3.042599 0
M  V30 23 C -0.023452 4.251109 2.011806 0
M  V30 24 O 0.064138 5.222695 1.230657 0
M  V30 25 C -0.312298 -4.449922 -1.585274 0
M  V30 26 C -0.487949 -4.451685 -3.056893 0
M  V30 27 N -0.666598 -5.380371 -0.684986 0
M  V30 28 C -1.330015 -6.639331 -0.974645 0
M  V30 29 H -0.453129 -6.825576 1.623265 0
M  V30 30 H 0.197782 -5.443728 2.606006 0
M  V30 31 H -1.564749 -5.537314 2.196172 0
M  V30 32 H 0.655854 -3.221368 1.391444 0
M  V30 33 H 0.248864 -0.712346 -2.665100 0
M  V30 34 H 1.860041 -1.559304 -3.021119 0
M  V30 35 H 3.664390 1.179084 -0.395545 0
M  V30 36 H 3.410088 2.714292 -1.376885 0
M  V30 37 H 1.271144 1.313439 0.327900 0
M  V30 38 H 1.083519 2.847244 -0.576899 0
M  V30 39 H 2.996208 2.523771 1.778100 0
M  V30 40 H 2.585334 3.993572 0.851962 0
M  V30 41 H -1.062983 1.171616 5.089044 0
M  V30 42 H -3.144007 2.331376 5.869048 0
M  V30 43 H -3.758142 4.404956 4.825076 0
M  V30 44 H -2.419413 5.469798 2.991395 0
M  V30 45 H -0.763161 -5.498561 -3.366665 0
M  V30 46 H -1.307475 -3.792500 -3.387510 0
M  V30 47 H 0.440501 -4.149104 -3.542091 0
M  V30 48 H -2.189613 -6.447910 -1.671447 0
M  V30 49 H -1.835625 -7.038787 -0.049629 0
M  V30 50 H -0.659486 -7.394481 -1.401159 0
M  V30 END ATOM
M  V30 BEGIN BOND
M  V30 1 1 1 2
M  V30 2 2 2 3
M  V30 3 1 3 4
M  V30 4 1 4 5
M  V30 5 2 5 6
M  V30 6 1 5 7
M  V30 7 1 7 8
M  V30 8 1 8 9
M  V30 9 2 9 10
M  V30 10 1 9 11
M  V30 11 1 11 12
M  V30 12 1 12 13
M  V30 13 1 13 14
M  V30 14 1 14 15
M  V30 15 2 15 16
M  V30 16 1 15 17
M  V30 17 2 17 18
M  V30 18 1 18 19
M  V30 19 2 19 20
M  V30 20 1 20 21
M  V30 21 2 21 22
M  V30 22 1 22 23
M  V30 23 2 23 24
M  V30 24 2 4 25
M  V30 25 1 25 26
M  V30 26 1 25 27
M  V30 27 1 27 28
M  V30 28 1 27 2
M  V30 29 1 23 14
M  V30 30 1 22 17
M  V30 31 1 1 29
M  V30 32 1 1 30
M  V30 33 1 1 31
M  V30 34 1 3 32
M  V30 35 1 7 33
M  V30 36 1 7 34
M  V30 37 1 11 35
M  V30 38 1 11 36
M  V30 39 1 12 37
M  V30 40 1 12 38
M  V30 41 1 13 39
M  V30 42 1 13 40
M  V30 43 1 18 41
M  V30 44 1 19 42
M  V30 45 1 20 43
M  V30 46 1 21 44
M  V30 47 1 26 45
M  V30 48 1 26 46
M  V30 49 1 26 47
M  V30 50 1 28 48
M  V30 51 1 28 49
M  V30 52 1 28 50
M  V30 END BOND
M  V30 END CTAB
M  END
>  <Dataset>  (167) 
ChEMBL_Kinases

>  <Ligand_Instance>  (167) 
nan

>  <PDB_ID>  (167) 
nan

>  <Standardized_SMILES>  (167) 
Cc1cc(C(=O)COC(=O)CCCN2C(=O)c3ccccc3C2=O)c(C)n1C

>  <Name>  (167) 
nan

>  <Pocket>  (167) 
nan

>  <ATP_Site>  (167) 
nan

>  <Peripheral>  (167) 
nan

>  <Num_H_Atoms_ProtBoundConf>  (167) 
nan

>  <Num_Resolved_Atoms>  (167) 
nan

>  <Num_Not_Resolved_Atoms>  (167) 
nan

$$$$
CHEMBL1588030
     RDKit          3D

  0  0  0  0  0  0  0  0  0  0999 V3000
M  V30 BEGIN CTAB
M  V30 COUNTS 46 49 0 0 0
M  V30 BEGIN ATOM
M  V30 1 C 0.424059 -5.236428 2.219196 0
M  V30 2 C -0.577309 -4.129977 2.292147 0
M  V30 3 C -0.062886 -2.930057 3.085490 0
M  V30 4 N 1.107769 -2.442781 2.430784 0
M  V30 5 C 2.512978 -2.697107 2.519227 0
M  V30 6 C 3.149460 -1.796355 1.516012 0
M  V30 7 C 4.483948 -1.701652 1.258312 0
M  V30 8 C 4.931008 -0.830421 0.305626 0
M  V30 9 C 4.020425 -0.046464 -0.394897 0
M  V30 10 C 2.661986 -0.160861 -0.113841 0
M  V30 11 C 1.654586 0.631205 -0.810659 0
M  V30 12 O 1.017229 0.017902 -1.680898 0
M  V30 13 N 1.406903 2.003151 -0.527757 0
M  V30 14 C 0.418458 2.831796 -1.188895 0
M  V30 15 C -0.966685 2.559202 -0.726032 0
M  V30 16 C -1.477799 3.272629 0.366152 0
M  V30 17 C -2.753092 3.114325 0.894706 0
M  V30 18 C -3.568328 2.182176 0.290812 0
M  V30 19 C -3.107536 1.455486 -0.788319 0
M  V30 20 C -1.832202 1.641152 -1.285817 0
M  V30 21 O -4.154381 0.602448 -1.173709 0
M  V30 22 C -5.168218 0.644266 -0.197961 0
M  V30 23 O -4.867739 1.793077 0.571293 0
M  V30 24 C 2.201324 -1.049142 0.858288 0
M  V30 25 C 0.908906 -1.443114 1.421395 0
M  V30 26 O -0.122006 -0.878024 0.961924 0
M  V30 27 H -0.151317 -6.195449 2.131233 0
M  V30 28 H 1.056714 -5.146117 1.313662 0
M  V30 29 H 1.021712 -5.235871 3.161397 0
M  V30 30 H -0.833073 -3.818724 1.248794 0
M  V30 31 H -1.518290 -4.453968 2.778069 0
M  V30 32 H -0.842029 -2.195465 3.271266 0
M  V30 33 H 0.243740 -3.315740 4.102829 0
M  V30 34 H 2.821063 -2.379519 3.559085 0
M  V30 35 H 2.711643 -3.750953 2.337433 0
M  V30 36 H 5.276808 -2.263581 1.742748 0
M  V30 37 H 5.988739 -0.696081 0.040372 0
M  V30 38 H 4.340203 0.664151 -1.167146 0
M  V30 39 H 2.026576 2.369519 0.228330 0
M  V30 40 H 0.489348 2.809815 -2.298477 0
M  V30 41 H 0.647715 3.882409 -0.912272 0
M  V30 42 H -0.841983 4.005834 0.840904 0
M  V30 43 H -3.045709 3.717223 1.741238 0
M  V30 44 H -1.472933 1.072213 -2.130961 0
M  V30 45 H -6.152376 0.727062 -0.664587 0
M  V30 46 H -5.119107 -0.249661 0.461406 0
M  V30 END ATOM
M  V30 BEGIN BOND
M  V30 1 1 1 2
M  V30 2 1 2 3
M  V30 3 1 3 4
M  V30 4 1 4 5
M  V30 5 1 5 6
M  V30 6 2 6 7
M  V30 7 1 7 8
M  V30 8 2 8 9
M  V30 9 1 9 10
M  V30 10 1 10 11
M  V30 11 2 11 12
M  V30 12 1 11 13
M  V30 13 1 13 14
M  V30 14 1 14 15
M  V30 15 2 15 16
M  V30 16 1 16 17
M  V30 17 2 17 18
M  V30 18 1 18 19
M  V30 19 2 19 20
M  V30 20 1 19 21
M  V30 21 1 21 22
M  V30 22 1 22 23
M  V30 23 2 10 24
M  V30 24 1 24 25
M  V30 25 2 25 26
M  V30 26 1 25 4
M  V30 27 1 24 6
M  V30 28 1 20 15
M  V30 29 1 23 18
M  V30 30 1 1 27
M  V30 31 1 1 28
M  V30 32 1 1 29
M  V30 33 1 2 30
M  V30 34 1 2 31
M  V30 35 1 3 32
M  V30 36 1 3 33
M  V30 37 1 5 34
M  V30 38 1 5 35
M  V30 39 1 7 36
M  V30 40 1 8 37
M  V30 41 1 9 38
M  V30 42 1 13 39
M  V30 43 1 14 40
M  V30 44 1 14 41
M  V30 45 1 16 42
M  V30 46 1 17 43
M  V30 47 1 20 44
M  V30 48 1 22 45
M  V30 49 1 22 46
M  V30 END BOND
M  V30 END CTAB
M  END
>  <Dataset>  (168) 
ChEMBL_Kinases

>  <Ligand_Instance>  (168) 
nan

>  <PDB_ID>  (168) 
nan

>  <Standardized_SMILES>  (168) 
CCCN1Cc2cccc(C(=O)NCc3ccc4c(c3)OCO4)c2C1=O

>  <Name>  (168) 
nan

>  <Pocket>  (168) 
nan

>  <ATP_Site>  (168) 
nan

>  <Peripheral>  (168) 
nan

>  <Num_H_Atoms_ProtBoundConf>  (168) 
nan

>  <Num_Resolved_Atoms>  (168) 
nan

>  <Num_Not_Resolved_Atoms>  (168) 
nan

$$$$
CHEMBL1588086
     RDKit          3D

  0  0  0  0  0  0  0  0  0  0999 V3000
M  V30 BEGIN CTAB
M  V30 COUNTS 39 41 0 0 0
M  V30 BEGIN ATOM
M  V30 1 C 4.225107 -6.351559 0.519429 0
M  V30 2 O 4.412253 -4.969571 0.770201 0
M  V30 3 C 3.360079 -4.075477 0.889000 0
M  V30 4 O 2.130468 -4.390169 0.787988 0
M  V30 5 C 3.890064 -2.690021 1.153046 0
M  V30 6 C 2.822533 -1.693332 1.290212 0
M  V30 7 C 2.166401 -1.231115 0.145068 0
M  V30 8 C 2.499485 -1.702322 -1.227752 0
M  V30 9 C 1.146221 -0.283627 0.253008 0
M  V30 10 C 0.476009 0.195389 -0.857236 0
M  V30 11 C -0.525568 1.131923 -0.697608 0
M  V30 12 C -0.861974 1.592807 0.562751 0
M  V30 13 O -1.872399 2.547205 0.806471 0
M  V30 14 C -3.179556 2.159832 1.058124 0
M  V30 15 O -3.384950 0.920211 1.052286 0
M  V30 16 C -4.282641 3.072778 1.318142 0
M  V30 17 C -5.563057 2.616518 1.561861 0
M  V30 18 C -6.315018 3.765242 1.759185 0
M  V30 19 C -5.467925 4.869842 1.628670 0
M  V30 20 O -4.258131 4.381139 1.363190 0
M  V30 21 C -0.164501 1.086642 1.655113 0
M  V30 22 C 0.841803 0.150214 1.532791 0
M  V30 23 O 1.461428 -0.287596 2.603403 0
M  V30 24 C 2.437018 -1.189722 2.531958 0
M  V30 25 O 3.000775 -1.577949 3.587193 0
M  V30 26 H 3.171834 -6.643082 0.419799 0
M  V30 27 H 4.761937 -6.705596 -0.391073 0
M  V30 28 H 4.675817 -6.897734 1.385220 0
M  V30 29 H 4.524931 -2.697305 2.073880 0
M  V30 30 H 4.565096 -2.371076 0.338403 0
M  V30 31 H 3.183691 -2.567289 -1.173349 0
M  V30 32 H 1.563458 -2.076662 -1.683180 0
M  V30 33 H 2.967022 -0.887523 -1.841965 0
M  V30 34 H 0.734817 -0.161644 -1.851248 0
M  V30 35 H -1.084560 1.543024 -1.529389 0
M  V30 36 H -5.963100 1.590594 1.604151 0
M  V30 37 H -7.375312 3.832022 1.978009 0
M  V30 38 H -5.714693 5.914770 1.718940 0
M  V30 39 H -0.417897 1.439415 2.651421 0
M  V30 END ATOM
M  V30 BEGIN BOND
M  V30 1 1 1 2
M  V30 2 1 2 3
M  V30 3 2 3 4
M  V30 4 1 3 5
M  V30 5 1 5 6
M  V30 6 2 6 7
M  V30 7 1 7 8
M  V30 8 1 7 9
M  V30 9 2 9 10
M  V30 10 1 10 11
M  V30 11 2 11 12
M  V30 12 1 12 13
M  V30 13 1 13 14
M  V30 14 2 14 15
M  V30 15 1 14 16
M  V30 16 2 16 17
M  V30 17 1 17 18
M  V30 18 2 18 19
M  V30 19 1 19 20
M  V30 20 1 12 21
M  V30 21 2 21 22
M  V30 22 1 22 23
M  V30 23 1 23 24
M  V30 24 2 24 25
M  V30 25 1 24 6
M  V30 26 1 22 9
M  V30 27 1 20 16
M  V30 28 1 1 26
M  V30 29 1 1 27
M  V30 30 1 1 28
M  V30 31 1 5 29
M  V30 32 1 5 30
M  V30 33 1 8 31
M  V30 34 1 8 32
M  V30 35 1 8 33
M  V30 36 1 10 34
M  V30 37 1 11 35
M  V30 38 1 17 36
M  V30 39 1 18 37
M  V30 40 1 19 38
M  V30 41 1 21 39
M  V30 END BOND
M  V30 END CTAB
M  END
>  <Dataset>  (169) 
ChEMBL_Kinases

>  <Ligand_Instance>  (169) 
nan

>  <PDB_ID>  (169) 
nan

>  <Standardized_SMILES>  (169) 
COC(=O)Cc1c(C)c2ccc(OC(=O)c3ccco3)cc2oc1=O

>  <Name>  (169) 
nan

>  <Pocket>  (169) 
nan

>  <ATP_Site>  (169) 
nan

>  <Peripheral>  (169) 
nan

>  <Num_H_Atoms_ProtBoundConf>  (169) 
nan

>  <Num_Resolved_Atoms>  (169) 
nan

>  <Num_Not_Resolved_Atoms>  (169) 
nan

$$$$
CHEMBL1588097
     RDKit          3D

  0  0  0  0  0  0  0  0  0  0999 V3000
M  V30 BEGIN CTAB
M  V30 COUNTS 39 40 0 0 0
M  V30 BEGIN ATOM
M  V30 1 C -0.370437 -4.660446 1.688956 0
M  V30 2 C -0.360149 -3.411340 0.795906 0
M  V30 3 C -1.755267 -2.848886 0.727804 0
M  V30 4 C 0.074765 -3.871487 -0.568057 0
M  V30 5 C 0.312596 -2.736295 -1.518491 0
M  V30 6 O 0.191003 -2.898310 -2.772259 0
M  V30 7 C 0.688495 -1.457082 -0.862280 0
M  V30 8 N 0.479545 -0.470861 -1.632083 0
M  V30 9 N 0.747836 0.831723 -1.245137 0
M  V30 10 C 1.069872 1.683382 -0.166397 0
M  V30 11 C 2.248144 2.275614 0.192981 0
M  V30 12 C 2.209925 3.046190 1.327301 0
M  V30 13 C 1.078079 3.234754 2.080626 0
M  V30 14 C 1.106613 4.085873 3.299105 0
M  V30 15 F 0.412869 3.437271 4.309268 0
M  V30 16 F 2.420469 4.229944 3.701907 0
M  V30 17 F 0.544388 5.301615 3.000642 0
M  V30 18 C -0.121143 2.645609 1.736124 0
M  V30 19 C -0.100499 1.857075 0.582990 0
M  V30 20 N -1.371382 1.289275 0.310216 0 CHG=1 VAL=4
M  V30 21 O -2.460377 1.767091 0.641793 0
M  V30 22 O -2.011640 0.246906 -0.267527 0 CHG=-1 VAL=1
M  V30 23 C 1.219668 -1.524043 0.487412 0
M  V30 24 O 2.217214 -0.821333 0.732699 0
M  V30 25 C 0.533636 -2.418342 1.450631 0
M  V30 26 H -1.207794 -5.278936 1.288577 0
M  V30 27 H 0.567578 -5.189481 1.435949 0
M  V30 28 H -0.496187 -4.399125 2.739841 0
M  V30 29 H -1.840184 -1.932515 1.375338 0
M  V30 30 H -2.063874 -2.551710 -0.283278 0
M  V30 31 H -2.475533 -3.590349 1.180446 0
M  V30 32 H 0.949894 -4.531767 -0.489522 0
M  V30 33 H -0.780692 -4.454460 -0.986179 0
M  V30 34 H 0.527329 0.683702 -2.248406 0
M  V30 35 H 3.064690 2.055093 -0.471860 0
M  V30 36 H 3.149845 3.504242 1.602666 0
M  V30 37 H -0.983017 2.821518 2.356780 0
M  V30 38 H -0.102652 -1.732376 2.080382 0
M  V30 39 H 1.273339 -2.858537 2.131251 0
M  V30 END ATOM
M  V30 BEGIN BOND
M  V30 1 1 1 2
M  V30 2 1 2 3
M  V30 3 1 2 4
M  V30 4 1 4 5
M  V30 5 2 5 6
M  V30 6 1 5 7
M  V30 7 2 7 8 CFG=2
M  V30 8 1 8 9
M  V30 9 1 9 10
M  V30 10 2 10 11
M  V30 11 1 11 12
M  V30 12 2 12 13
M  V30 13 1 13 14
M  V30 14 1 14 15
M  V30 15 1 14 16
M  V30 16 1 14 17
M  V30 17 1 13 18
M  V30 18 2 18 19
M  V30 19 1 19 20
M  V30 20 2 20 21
M  V30 21 1 20 22
M  V30 22 1 7 23
M  V30 23 2 23 24
M  V30 24 1 23 25
M  V30 25 1 25 2
M  V30 26 1 19 10
M  V30 27 1 1 26
M  V30 28 1 1 27
M  V30 29 1 1 28
M  V30 30 1 3 29
M  V30 31 1 3 30
M  V30 32 1 3 31
M  V30 33 1 4 32
M  V30 34 1 4 33
M  V30 35 1 9 34
M  V30 36 1 11 35
M  V30 37 1 12 36
M  V30 38 1 18 37
M  V30 39 1 25 38
M  V30 40 1 25 39
M  V30 END BOND
M  V30 END CTAB
M  END
>  <Dataset>  (170) 
ChEMBL_Kinases

>  <Ligand_Instance>  (170) 
nan

>  <PDB_ID>  (170) 
nan

>  <Standardized_SMILES>  (170) 
CC1(C)CC(=O)C(=NNc2ccc(C(F)(F)F)cc2[N+](=O)[O-])C(=O)C1

>  <Name>  (170) 
nan

>  <Pocket>  (170) 
nan

>  <ATP_Site>  (170) 
nan

>  <Peripheral>  (170) 
nan

>  <Num_H_Atoms_ProtBoundConf>  (170) 
nan

>  <Num_Resolved_Atoms>  (170) 
nan

>  <Num_Not_Resolved_Atoms>  (170) 
nan

$$$$
CHEMBL1588244
     RDKit          3D

  0  0  0  0  0  0  0  0  0  0999 V3000
M  V30 BEGIN CTAB
M  V30 COUNTS 50 53 0 0 0
M  V30 BEGIN ATOM
M  V30 1 O -1.110116 -1.076319 0.682232 0
M  V30 2 C -1.211625 -1.324718 1.903743 0
M  V30 3 C 0.116744 -1.192807 2.552294 0
M  V30 4 C 1.104659 -0.821970 1.463715 0
M  V30 5 C 2.475468 -0.672773 2.048485 0
M  V30 6 C 3.538452 -0.313051 1.069916 0
M  V30 7 N 3.251907 0.949634 0.421054 0
M  V30 8 C 2.549423 1.086785 -0.730162 0
M  V30 9 O 2.112842 0.052945 -1.281168 0
M  V30 10 N 2.314463 2.289094 -1.286324 0
M  V30 11 C 2.753838 3.440468 -0.749195 0
M  V30 12 C 2.494450 4.664088 -1.349215 0
M  V30 13 C 2.948464 5.856063 -0.796937 0
M  V30 14 C 3.673885 5.728101 0.388989 0
M  V30 15 C 3.951232 4.513829 1.016582 0
M  V30 16 C 3.474836 3.368681 0.421629 0
M  V30 17 C 3.694715 2.113374 0.961231 0
M  V30 18 O 4.349762 2.065002 2.022397 0
M  V30 19 N -2.429168 -1.672832 2.520782 0
M  V30 20 C -3.705010 -1.789892 1.846941 0
M  V30 21 C -3.774781 -3.056711 1.074477 0
M  V30 22 C -4.252031 -4.187421 1.738942 0
M  V30 23 C -4.376217 -5.445687 1.143795 0
M  V30 24 C -3.998277 -5.544237 -0.175262 0
M  V30 25 C -3.514709 -4.433901 -0.877410 0
M  V30 26 C -3.410717 -3.213551 -0.245543 0
M  V30 27 O -3.224153 -4.874772 -2.183295 0
M  V30 28 C -3.095336 -6.303817 -2.101893 0
M  V30 29 O -4.001436 -6.649029 -1.046113 0
M  V30 30 H 0.035072 -0.297354 3.225520 0
M  V30 31 H 0.368671 -2.115821 3.073820 0
M  V30 32 H 0.776467 0.176011 1.109134 0
M  V30 33 H 1.123378 -1.601825 0.673559 0
M  V30 34 H 2.404364 0.181869 2.782683 0
M  V30 35 H 2.785337 -1.560286 2.643262 0
M  V30 36 H 4.487685 -0.181389 1.657354 0
M  V30 37 H 3.763515 -1.118733 0.343955 0
M  V30 38 H 1.761895 2.317428 -2.180721 0
M  V30 39 H 1.923214 4.685949 -2.270157 0
M  V30 40 H 2.768646 6.819736 -1.229739 0
M  V30 41 H 4.058802 6.640859 0.870690 0
M  V30 42 H 4.510929 4.478453 1.922303 0
M  V30 43 H -2.325353 -1.847415 3.557639 0
M  V30 44 H -3.856721 -0.974273 1.105007 0
M  V30 45 H -4.545142 -1.714300 2.554303 0
M  V30 46 H -4.545944 -4.098429 2.774743 0
M  V30 47 H -4.754137 -6.277989 1.721161 0
M  V30 48 H -3.043551 -2.351321 -0.770127 0
M  V30 49 H -3.448697 -6.785191 -3.009996 0
M  V30 50 H -2.048474 -6.571993 -1.839815 0
M  V30 END ATOM
M  V30 BEGIN BOND
M  V30 1 2 1 2
M  V30 2 1 2 3
M  V30 3 1 3 4
M  V30 4 1 4 5
M  V30 5 1 5 6
M  V30 6 1 6 7
M  V30 7 1 7 8
M  V30 8 2 8 9
M  V30 9 1 8 10
M  V30 10 1 10 11
M  V30 11 2 11 12
M  V30 12 1 12 13
M  V30 13 2 13 14
M  V30 14 1 14 15
M  V30 15 2 15 16
M  V30 16 1 16 17
M  V30 17 2 17 18
M  V30 18 1 2 19
M  V30 19 1 19 20
M  V30 20 1 20 21
M  V30 21 2 21 22
M  V30 22 1 22 23
M  V30 23 2 23 24
M  V30 24 1 24 25
M  V30 25 2 25 26
M  V30 26 1 25 27
M  V30 27 1 27 28
M  V30 28 1 28 29
M  V30 29 1 17 7
M  V30 30 1 26 21
M  V30 31 1 16 11
M  V30 32 1 29 24
M  V30 33 1 3 30
M  V30 34 1 3 31
M  V30 35 1 4 32
M  V30 36 1 4 33
M  V30 37 1 5 34
M  V30 38 1 5 35
M  V30 39 1 6 36
M  V30 40 1 6 37
M  V30 41 1 10 38
M  V30 42 1 12 39
M  V30 43 1 13 40
M  V30 44 1 14 41
M  V30 45 1 15 42
M  V30 46 1 19 43
M  V30 47 1 20 44
M  V30 48 1 20 45
M  V30 49 1 22 46
M  V30 50 1 23 47
M  V30 51 1 26 48
M  V30 52 1 28 49
M  V30 53 1 28 50
M  V30 END BOND
M  V30 END CTAB
M  END
>  <Dataset>  (171) 
ChEMBL_Kinases

>  <Ligand_Instance>  (171) 
nan

>  <PDB_ID>  (171) 
nan

>  <Standardized_SMILES>  (171) 
O=C(CCCCn1c(=O)[nH]c2ccccc2c1=O)NCc1ccc2c(c1)OCO2

>  <Name>  (171) 
nan

>  <Pocket>  (171) 
nan

>  <ATP_Site>  (171) 
nan

>  <Peripheral>  (171) 
nan

>  <Num_H_Atoms_ProtBoundConf>  (171) 
nan

>  <Num_Resolved_Atoms>  (171) 
nan

>  <Num_Not_Resolved_Atoms>  (171) 
nan

$$$$
CHEMBL1589076
     RDKit          3D

  0  0  0  0  0  0  0  0  0  0999 V3000
M  V30 BEGIN CTAB
M  V30 COUNTS 61 63 0 0 0
M  V30 BEGIN ATOM
M  V30 1 C 0.872116 1.566226 3.271270 0
M  V30 2 C 0.652030 0.180490 3.831338 0
M  V30 3 C -0.747783 -0.259512 3.545735 0
M  V30 4 C -1.082611 -0.411404 2.116463 0
M  V30 5 N -0.294693 -1.433633 1.403802 0
M  V30 6 C 0.906932 -1.470922 0.621889 0
M  V30 7 O 1.251496 -2.658397 0.217962 0
M  V30 8 C 1.968918 -0.686722 0.054494 0
M  V30 9 N 1.966339 0.741384 0.231799 0
M  V30 10 C 0.939773 1.598969 -0.243672 0
M  V30 11 O -0.038785 1.165494 -0.855853 0
M  V30 12 C 1.070849 3.035206 0.013076 0
M  V30 13 C 0.183289 4.008200 -0.368761 0
M  V30 14 C 0.446698 5.304672 -0.054492 0
M  V30 15 C 1.670791 5.535249 0.671466 0
M  V30 16 S 2.354259 3.816483 0.842594 0
M  V30 17 C -0.928607 -2.748115 1.539352 0
M  V30 18 C -1.510464 -3.164495 0.208457 0
M  V30 19 O -2.152681 -4.165866 -0.213551 0
M  V30 20 N -1.382483 -2.335711 -0.917122 0
M  V30 21 C -1.822943 -2.477856 -2.261706 0
M  V30 22 C -2.860142 -1.455609 -2.668197 0
M  V30 23 C -2.462819 -1.012864 -4.048307 0
M  V30 24 C -0.963878 -1.150058 -4.033950 0
M  V30 25 C -0.753743 -2.456165 -3.292944 0
M  V30 26 C -0.068004 -3.808653 2.014733 0
M  V30 27 C 0.711547 -3.602374 3.134317 0
M  V30 28 C 1.568794 -4.566673 3.651447 0
M  V30 29 N 1.696631 -5.792475 3.080138 0
M  V30 30 C 0.959373 -6.048459 1.984863 0
M  V30 31 C 0.127401 -5.075457 1.505049 0
M  V30 32 H 0.153734 1.867086 2.498120 0
M  V30 33 H 0.716943 2.342834 4.093089 0
M  V30 34 H 1.899563 1.657439 2.870685 0
M  V30 35 H 1.375512 -0.479042 3.304248 0
M  V30 36 H 0.853496 0.225781 4.921798 0
M  V30 37 H -1.404176 0.535446 4.032238 0
M  V30 38 H -0.981388 -1.160250 4.163756 0
M  V30 39 H -1.032250 0.556433 1.608905 0
M  V30 40 H -2.178670 -0.680526 2.065812 0
M  V30 41 H 2.008030 -0.825359 -1.073770 0
M  V30 42 H 2.973299 -1.085666 0.399834 0
M  V30 43 H 2.786932 1.190343 0.743526 0
M  V30 44 H -0.720199 3.759026 -0.914573 0
M  V30 45 H -0.168986 6.161560 -0.296239 0
M  V30 46 H 1.997472 6.585828 0.990556 0
M  V30 47 H -1.844760 -2.715200 2.182914 0
M  V30 48 H -0.912506 -1.404841 -0.962990 0
M  V30 49 H -2.350724 -3.463408 -2.315165 0
M  V30 50 H -2.907644 -0.600376 -1.967541 0
M  V30 51 H -3.882140 -1.860436 -2.719821 0
M  V30 52 H -2.841730 -1.673055 -4.830316 0
M  V30 53 H -2.772591 0.053014 -4.203162 0
M  V30 54 H -0.536614 -1.183837 -5.055401 0
M  V30 55 H -0.528951 -0.273597 -3.521287 0
M  V30 56 H -0.862782 -3.253849 -4.058677 0
M  V30 57 H 0.271929 -2.548977 -2.895566 0
M  V30 58 H 0.759060 -2.725490 3.724821 0
M  V30 59 H 2.200055 -4.453581 4.525619 0
M  V30 60 H 1.048704 -7.017414 1.518326 0
M  V30 61 H -0.424035 -5.361457 0.624002 0
M  V30 END ATOM
M  V30 BEGIN BOND
M  V30 1 1 1 2
M  V30 2 1 2 3
M  V30 3 1 3 4
M  V30 4 1 4 5
M  V30 5 1 5 6
M  V30 6 2 6 7
M  V30 7 1 6 8
M  V30 8 1 8 9
M  V30 9 1 9 10
M  V30 10 2 10 11
M  V30 11 1 10 12
M  V30 12 2 12 13
M  V30 13 1 13 14
M  V30 14 2 14 15
M  V30 15 1 15 16
M  V30 16 1 5 17
M  V30 17 1 17 18
M  V30 18 2 18 19
M  V30 19 1 18 20
M  V30 20 1 20 21
M  V30 21 1 21 22
M  V30 22 1 22 23
M  V30 23 1 23 24
M  V30 24 1 24 25
M  V30 25 1 17 26
M  V30 26 2 26 27
M  V30 27 1 27 28
M  V30 28 2 28 29
M  V30 29 1 29 30
M  V30 30 2 30 31
M  V30 31 1 16 12
M  V30 32 1 25 21
M  V30 33 1 31 26
M  V30 34 1 1 32
M  V30 35 1 1 33
M  V30 36 1 1 34
M  V30 37 1 2 35
M  V30 38 1 2 36
M  V30 39 1 3 37
M  V30 40 1 3 38
M  V30 41 1 4 39
M  V30 42 1 4 40
M  V30 43 1 8 41
M  V30 44 1 8 42
M  V30 45 1 9 43
M  V30 46 1 13 44
M  V30 47 1 14 45
M  V30 48 1 15 46
M  V30 49 1 17 47
M  V30 50 1 20 48
M  V30 51 1 21 49
M  V30 52 1 22 50
M  V30 53 1 22 51
M  V30 54 1 23 52
M  V30 55 1 23 53
M  V30 56 1 24 54
M  V30 57 1 24 55
M  V30 58 1 25 56
M  V30 59 1 25 57
M  V30 60 1 27 58
M  V30 61 1 28 59
M  V30 62 1 30 60
M  V30 63 1 31 61
M  V30 END BOND
M  V30 END CTAB
M  END
>  <Dataset>  (172) 
ChEMBL_Kinases

>  <Ligand_Instance>  (172) 
nan

>  <PDB_ID>  (172) 
nan

>  <Standardized_SMILES>  (172) 
CCCCN(C(=O)CNC(=O)c1cccs1)C(C(=O)NC1CCCC1)c1ccncc1

>  <Name>  (172) 
nan

>  <Pocket>  (172) 
nan

>  <ATP_Site>  (172) 
nan

>  <Peripheral>  (172) 
nan

>  <Num_H_Atoms_ProtBoundConf>  (172) 
nan

>  <Num_Resolved_Atoms>  (172) 
nan

>  <Num_Not_Resolved_Atoms>  (172) 
nan

$$$$
CHEMBL1588368
     RDKit          3D

  0  0  0  0  0  0  0  0  0  0999 V3000
M  V30 BEGIN CTAB
M  V30 COUNTS 40 42 0 0 0
M  V30 BEGIN ATOM
M  V30 1 C 0.295530 -5.066392 1.514554 0
M  V30 2 C 0.934364 -4.292194 2.614818 0
M  V30 3 C 0.059226 -3.419271 3.434051 0
M  V30 4 N -0.653868 -2.376877 2.768521 0
M  V30 5 C -0.084223 -1.042490 2.580150 0
M  V30 6 O 1.042812 -0.639646 2.966543 0
M  V30 7 C -0.912532 -0.078514 1.889771 0
M  V30 8 C -0.740692 0.819618 0.977979 0
M  V30 9 C -1.909250 1.570216 0.628317 0
M  V30 10 C -1.807695 2.506177 -0.288800 0
M  V30 11 C -0.508618 2.729276 -0.899521 0
M  V30 12 C -0.466532 3.736023 -1.831371 0
M  V30 13 C 0.723813 4.033656 -2.446704 0
M  V30 14 C 1.867332 3.333035 -2.136569 0
M  V30 15 C 1.728846 2.346455 -1.196073 0
M  V30 16 C 0.588101 1.981662 -0.535189 0
M  V30 17 N 0.581516 0.923180 0.461144 0
M  V30 18 C 1.738628 0.133098 0.679480 0
M  V30 19 C 1.684093 -1.299458 0.141247 0
M  V30 20 S -2.512185 -0.649923 2.573535 0
M  V30 21 C -1.968407 -2.383509 2.197500 0
M  V30 22 S -2.655246 -3.657619 1.461470 0
M  V30 23 H -0.550899 -5.700118 1.852721 0
M  V30 24 H 1.047339 -5.841357 1.153677 0
M  V30 25 H 0.064376 -4.502675 0.598356 0
M  V30 26 H 1.423409 -5.082336 3.280064 0
M  V30 27 H 1.815116 -3.758918 2.201529 0
M  V30 28 H 0.690777 -3.020677 4.284842 0
M  V30 29 H -0.664836 -4.094334 3.982364 0
M  V30 30 H -2.880595 1.416316 1.073514 0
M  V30 31 H -2.673814 3.082400 -0.567729 0
M  V30 32 H -1.340446 4.307793 -2.101583 0
M  V30 33 H 0.735577 4.829743 -3.176664 0
M  V30 34 H 2.777916 3.602983 -2.646354 0
M  V30 35 H 2.676574 1.871232 -1.010139 0
M  V30 36 H 2.466439 0.528069 -0.126681 0
M  V30 37 H 2.427100 0.334623 1.484570 0
M  V30 38 H 2.207841 -1.427810 -0.846503 0
M  V30 39 H 2.287030 -1.952207 0.801774 0
M  V30 40 H 0.669559 -1.647674 -0.086782 0
M  V30 END ATOM
M  V30 BEGIN BOND
M  V30 1 1 1 2
M  V30 2 1 2 3
M  V30 3 1 3 4
M  V30 4 1 4 5
M  V30 5 2 5 6
M  V30 6 1 5 7
M  V30 7 2 7 8
M  V30 8 1 8 9
M  V30 9 2 9 10
M  V30 10 1 10 11
M  V30 11 2 11 12
M  V30 12 1 12 13
M  V30 13 2 13 14
M  V30 14 1 14 15
M  V30 15 2 15 16
M  V30 16 1 16 17
M  V30 17 1 17 18
M  V30 18 1 18 19
M  V30 19 1 7 20
M  V30 20 1 20 21
M  V30 21 2 21 22
M  V30 22 1 21 4
M  V30 23 1 17 8
M  V30 24 1 16 11
M  V30 25 1 1 23
M  V30 26 1 1 24
M  V30 27 1 1 25
M  V30 28 1 2 26
M  V30 29 1 2 27
M  V30 30 1 3 28
M  V30 31 1 3 29
M  V30 32 1 9 30
M  V30 33 1 10 31
M  V30 34 1 12 32
M  V30 35 1 13 33
M  V30 36 1 14 34
M  V30 37 1 15 35
M  V30 38 1 18 36
M  V30 39 1 18 37
M  V30 40 1 19 38
M  V30 41 1 19 39
M  V30 42 1 19 40
M  V30 END BOND
M  V30 END CTAB
M  END
>  <Dataset>  (173) 
ChEMBL_Kinases

>  <Ligand_Instance>  (173) 
nan

>  <PDB_ID>  (173) 
nan

>  <Standardized_SMILES>  (173) 
CCCN1C(=O)/C(=C2/C=Cc3ccccc3N2CC)SC1=S

>  <Name>  (173) 
nan

>  <Pocket>  (173) 
nan

>  <ATP_Site>  (173) 
nan

>  <Peripheral>  (173) 
nan

>  <Num_H_Atoms_ProtBoundConf>  (173) 
nan

>  <Num_Resolved_Atoms>  (173) 
nan

>  <Num_Not_Resolved_Atoms>  (173) 
nan

$$$$
CHEMBL1588399
     RDKit          3D

  0  0  0  0  0  0  0  0  0  0999 V3000
M  V30 BEGIN CTAB
M  V30 COUNTS 34 36 0 0 0
M  V30 BEGIN ATOM
M  V30 1 C -2.336513 -2.479486 4.476903 0
M  V30 2 C -1.975865 -1.696810 3.249598 0
M  V30 3 C -0.826480 -2.079751 2.604530 0
M  V30 4 C -0.445574 -1.393245 1.469900 0
M  V30 5 N 0.741050 -1.814613 0.816304 0
M  V30 6 C 1.522245 -1.399091 -0.289803 0
M  V30 7 C 1.725604 -2.198807 -1.403145 0
M  V30 8 C 2.474757 -1.873876 -2.510141 0
M  V30 9 F 2.626002 -2.709857 -3.557703 0
M  V30 10 C 3.059310 -0.619957 -2.457635 0
M  V30 11 C 2.907706 0.239203 -1.386499 0
M  V30 12 C 2.137323 -0.169678 -0.316285 0
M  V30 13 C 2.039220 0.801035 0.787230 0
M  V30 14 N -1.229466 -0.379616 1.058386 0
M  V30 15 N -1.110494 0.431940 0.022154 0
M  V30 16 C -2.113266 1.321928 -0.048181 0
M  V30 17 C -2.301856 2.393388 -1.086632 0
M  V30 18 N -2.902007 1.048487 1.005027 0
M  V30 19 C -2.359768 0.014411 1.672756 0
M  V30 20 N -2.703014 -0.674995 2.775043 0
M  V30 21 H -1.391315 -2.727845 5.002958 0
M  V30 22 H -2.945424 -3.361237 4.245266 0
M  V30 23 H -2.907448 -1.845007 5.184892 0
M  V30 24 H -0.220558 -2.899244 2.963805 0
M  V30 25 H 1.263031 -2.637213 1.152116 0
M  V30 26 H 1.241321 -3.173045 -1.387374 0
M  V30 27 H 3.668162 -0.293289 -3.299012 0
M  V30 28 H 3.396660 1.199586 -1.423460 0
M  V30 29 H 1.535052 0.402097 1.671678 0
M  V30 30 H 3.031909 1.266633 1.001593 0
M  V30 31 H 1.411431 1.647089 0.379832 0
M  V30 32 H -1.640087 3.275987 -0.845244 0
M  V30 33 H -3.342298 2.768371 -0.975530 0
M  V30 34 H -2.030955 2.073022 -2.095086 0
M  V30 END ATOM
M  V30 BEGIN BOND
M  V30 1 1 1 2
M  V30 2 1 2 3
M  V30 3 2 3 4
M  V30 4 1 4 5
M  V30 5 1 5 6
M  V30 6 2 6 7
M  V30 7 1 7 8
M  V30 8 1 8 9
M  V30 9 2 8 10
M  V30 10 1 10 11
M  V30 11 2 11 12
M  V30 12 1 12 13
M  V30 13 1 4 14
M  V30 14 1 14 15
M  V30 15 2 15 16
M  V30 16 1 16 17
M  V30 17 1 16 18
M  V30 18 2 18 19
M  V30 19 1 19 20
M  V30 20 2 20 2
M  V30 21 1 12 6
M  V30 22 1 19 14
M  V30 23 1 1 21
M  V30 24 1 1 22
M  V30 25 1 1 23
M  V30 26 1 3 24
M  V30 27 1 5 25
M  V30 28 1 7 26
M  V30 29 1 10 27
M  V30 30 1 11 28
M  V30 31 1 13 29
M  V30 32 1 13 30
M  V30 33 1 13 31
M  V30 34 1 17 32
M  V30 35 1 17 33
M  V30 36 1 17 34
M  V30 END BOND
M  V30 END CTAB
M  END
>  <Dataset>  (174) 
ChEMBL_Kinases

>  <Ligand_Instance>  (174) 
nan

>  <PDB_ID>  (174) 
nan

>  <Standardized_SMILES>  (174) 
Cc1cc(Nc2cc(F)ccc2C)n2nc(C)nc2n1

>  <Name>  (174) 
nan

>  <Pocket>  (174) 
nan

>  <ATP_Site>  (174) 
nan

>  <Peripheral>  (174) 
nan

>  <Num_H_Atoms_ProtBoundConf>  (174) 
nan

>  <Num_Resolved_Atoms>  (174) 
nan

>  <Num_Not_Resolved_Atoms>  (174) 
nan

$$$$
CHEMBL1588403
     RDKit          3D

  0  0  0  0  0  0  0  0  0  0999 V3000
M  V30 BEGIN CTAB
M  V30 COUNTS 36 38 0 0 0
M  V30 BEGIN ATOM
M  V30 1 C -0.288884 -5.036810 2.989548 0
M  V30 2 C 0.853751 -4.071118 3.249600 0
M  V30 3 O 0.821326 -2.991498 2.335273 0
M  V30 4 C 1.742695 -1.983050 2.356760 0
M  V30 5 O 2.519041 -2.262395 3.299868 0
M  V30 6 C 1.913262 -0.809736 1.553476 0
M  V30 7 N 2.922059 0.046941 1.792185 0
M  V30 8 N 2.812068 1.016372 0.905744 0
M  V30 9 N 1.775299 0.816603 0.109110 0
M  V30 10 C 1.409467 1.701574 -0.945135 0
M  V30 11 N 1.543834 1.244940 -2.224882 0
M  V30 12 O 1.159659 2.196595 -3.049523 0
M  V30 13 N 0.782711 3.244729 -2.409545 0
M  V30 14 C 0.913536 3.003849 -1.074796 0
M  V30 15 O 0.686499 3.697645 0.102514 0
M  V30 16 C 0.187995 5.020390 0.145984 0
M  V30 17 C 1.178265 -0.347248 0.499041 0
M  V30 18 C 0.015637 -0.938489 -0.117441 0
M  V30 19 C -0.240846 -2.226377 -0.529569 0
M  V30 20 C -1.455507 -2.552648 -1.092535 0
M  V30 21 C -2.469041 -1.654621 -1.281068 0
M  V30 22 C -2.224125 -0.359668 -0.872200 0
M  V30 23 C -1.014758 -0.007363 -0.304932 0
M  V30 24 H -1.207467 -4.440942 2.865058 0
M  V30 25 H -0.414109 -5.633203 3.914314 0
M  V30 26 H -0.080474 -5.678153 2.124741 0
M  V30 27 H 1.816515 -4.636324 3.122355 0
M  V30 28 H 0.839310 -3.680356 4.272269 0
M  V30 29 H 0.213383 5.327570 1.211046 0
M  V30 30 H -0.865574 5.097140 -0.195920 0
M  V30 31 H 0.791332 5.744870 -0.420573 0
M  V30 32 H 0.582552 -2.888961 -0.367004 0
M  V30 33 H -1.603512 -3.579734 -1.398386 0
M  V30 34 H -3.413631 -1.915186 -1.720488 0
M  V30 35 H -3.029731 0.356220 -1.021690 0
M  V30 36 H -0.958870 1.051570 -0.028215 0
M  V30 END ATOM
M  V30 BEGIN BOND
M  V30 1 1 1 2
M  V30 2 1 2 3
M  V30 3 1 3 4
M  V30 4 2 4 5
M  V30 5 1 4 6
M  V30 6 1 6 7
M  V30 7 2 7 8
M  V30 8 1 8 9
M  V30 9 1 9 10
M  V30 10 2 10 11
M  V30 11 1 11 12
M  V30 12 1 12 13
M  V30 13 2 13 14
M  V30 14 1 14 15
M  V30 15 1 15 16
M  V30 16 1 9 17
M  V30 17 1 17 18
M  V30 18 2 18 19
M  V30 19 1 19 20
M  V30 20 2 20 21
M  V30 21 1 21 22
M  V30 22 2 22 23
M  V30 23 2 17 6
M  V30 24 1 23 18
M  V30 25 1 14 10
M  V30 26 1 1 24
M  V30 27 1 1 25
M  V30 28 1 1 26
M  V30 29 1 2 27
M  V30 30 1 2 28
M  V30 31 1 16 29
M  V30 32 1 16 30
M  V30 33 1 16 31
M  V30 34 1 19 32
M  V30 35 1 20 33
M  V30 36 1 21 34
M  V30 37 1 22 35
M  V30 38 1 23 36
M  V30 END BOND
M  V30 END CTAB
M  END
>  <Dataset>  (175) 
ChEMBL_Kinases

>  <Ligand_Instance>  (175) 
nan

>  <PDB_ID>  (175) 
nan

>  <Standardized_SMILES>  (175) 
CCOC(=O)c1nnn(-c2nonc2OC)c1-c1ccccc1

>  <Name>  (175) 
nan

>  <Pocket>  (175) 
nan

>  <ATP_Site>  (175) 
nan

>  <Peripheral>  (175) 
nan

>  <Num_H_Atoms_ProtBoundConf>  (175) 
nan

>  <Num_Resolved_Atoms>  (175) 
nan

>  <Num_Not_Resolved_Atoms>  (175) 
nan

$$$$
CHEMBL1588448
     RDKit          3D

  0  0  0  0  0  0  0  0  0  0999 V3000
M  V30 BEGIN CTAB
M  V30 COUNTS 46 47 0 0 0
M  V30 BEGIN ATOM
M  V30 1 C -3.589097 -2.779305 3.671960 0
M  V30 2 C -2.497236 -2.889670 2.669671 0
M  V30 3 C -1.787246 -4.035055 2.479936 0
M  V30 4 C -0.780380 -4.106538 1.543844 0
M  V30 5 C -0.427364 -3.017390 0.737013 0
M  V30 6 N 0.621222 -3.173389 -0.196159 0
M  V30 7 C 1.115598 -2.213809 -1.117191 0
M  V30 8 S 2.832084 -2.226208 -1.615561 0
M  V30 9 N 0.242453 -1.362677 -1.547642 0
M  V30 10 C 0.522799 -0.317782 -2.474982 0
M  V30 11 C 1.522174 0.710358 -1.995358 0
M  V30 12 C 0.992982 1.365796 -0.751115 0
M  V30 13 N 1.881846 2.373099 -0.210879 0
M  V30 14 C 1.262441 2.926974 0.968808 0
M  V30 15 C 1.022997 1.893273 2.015729 0
M  V30 16 O 1.899456 0.843000 2.019956 0
M  V30 17 C 3.130477 1.056485 1.470106 0
M  V30 18 C 3.162669 1.847572 0.206020 0
M  V30 19 C -1.172205 -1.912261 0.977512 0
M  V30 20 C -2.187636 -1.789224 1.899614 0
M  V30 21 C -2.934803 -0.517206 2.071483 0
M  V30 22 H -3.873103 -3.763355 4.078622 0
M  V30 23 H -3.145046 -2.205075 4.535983 0
M  V30 24 H -4.441131 -2.181361 3.336591 0
M  V30 25 H -2.024779 -4.910706 3.083944 0
M  V30 26 H -0.254392 -5.060129 1.448313 0
M  V30 27 H 1.120888 -4.112246 -0.234821 0
M  V30 28 H 3.617078 -2.155762 -0.460406 0
M  V30 29 H 0.839121 -0.705448 -3.476542 0
M  V30 30 H -0.442522 0.252933 -2.610925 0
M  V30 31 H 1.609667 1.442032 -2.825342 0
M  V30 32 H 2.536044 0.290662 -1.871803 0
M  V30 33 H 0.717866 0.615857 0.017993 0
M  V30 34 H 0.054627 1.895751 -1.016131 0
M  V30 35 H 0.251345 3.337315 0.677614 0
M  V30 36 H 1.868398 3.745232 1.420883 0
M  V30 37 H -0.013376 1.464326 1.906758 0
M  V30 38 H 1.032598 2.323217 3.056010 0
M  V30 39 H 3.807439 1.467955 2.275052 0
M  V30 40 H 3.563586 0.032349 1.267990 0
M  V30 41 H 3.784829 2.764884 0.428285 0
M  V30 42 H 3.724449 1.325236 -0.576944 0
M  V30 43 H -0.972175 -1.024897 0.406616 0
M  V30 44 H -3.400217 -0.440921 3.065099 0
M  V30 45 H -2.232818 0.346102 1.892300 0
M  V30 46 H -3.673309 -0.466465 1.239997 0
M  V30 END ATOM
M  V30 BEGIN BOND
M  V30 1 1 1 2
M  V30 2 2 2 3
M  V30 3 1 3 4
M  V30 4 2 4 5
M  V30 5 1 5 6
M  V30 6 1 6 7
M  V30 7 1 7 8
M  V30 8 2 7 9 CFG=2
M  V30 9 1 9 10
M  V30 10 1 10 11
M  V30 11 1 11 12
M  V30 12 1 12 13
M  V30 13 1 13 14
M  V30 14 1 14 15
M  V30 15 1 15 16
M  V30 16 1 16 17
M  V30 17 1 17 18
M  V30 18 1 5 19
M  V30 19 2 19 20
M  V30 20 1 20 21
M  V30 21 1 20 2
M  V30 22 1 18 13
M  V30 23 1 1 22
M  V30 24 1 1 23
M  V30 25 1 1 24
M  V30 26 1 3 25
M  V30 27 1 4 26
M  V30 28 1 6 27
M  V30 29 1 8 28
M  V30 30 1 10 29
M  V30 31 1 10 30
M  V30 32 1 11 31
M  V30 33 1 11 32
M  V30 34 1 12 33
M  V30 35 1 12 34
M  V30 36 1 14 35
M  V30 37 1 14 36
M  V30 38 1 15 37
M  V30 39 1 15 38
M  V30 40 1 17 39
M  V30 41 1 17 40
M  V30 42 1 18 41
M  V30 43 1 18 42
M  V30 44 1 19 43
M  V30 45 1 21 44
M  V30 46 1 21 45
M  V30 47 1 21 46
M  V30 END BOND
M  V30 END CTAB
M  END
>  <Dataset>  (176) 
ChEMBL_Kinases

>  <Ligand_Instance>  (176) 
nan

>  <PDB_ID>  (176) 
nan

>  <Standardized_SMILES>  (176) 
Cc1ccc(NC(S)=NCCCN2CCOCC2)cc1C

>  <Name>  (176) 
nan

>  <Pocket>  (176) 
nan

>  <ATP_Site>  (176) 
nan

>  <Peripheral>  (176) 
nan

>  <Num_H_Atoms_ProtBoundConf>  (176) 
nan

>  <Num_Resolved_Atoms>  (176) 
nan

>  <Num_Not_Resolved_Atoms>  (176) 
nan

$$$$
CHEMBL1588601
     RDKit          3D

  0  0  0  0  0  0  0  0  0  0999 V3000
M  V30 BEGIN CTAB
M  V30 COUNTS 52 54 0 0 0
M  V30 BEGIN ATOM
M  V30 1 C 5.370963 -0.796923 2.646420 0
M  V30 2 N 5.187539 -2.022344 1.893178 0
M  V30 3 C 5.818362 -3.192596 2.092756 0
M  V30 4 C 5.399374 -4.128719 1.199427 0
M  V30 5 C 4.467405 -3.452944 0.436961 0
M  V30 6 C 4.316243 -2.130625 0.851753 0
M  V30 7 C 3.411433 -1.156534 0.252691 0
M  V30 8 O 2.677249 -1.497883 -0.735883 0
M  V30 9 O 3.386143 0.112615 0.787340 0
M  V30 10 C 2.557243 1.149217 0.312394 0
M  V30 11 C 1.124385 0.822922 0.471367 0
M  V30 12 O 0.458563 1.813543 0.010291 0
M  V30 13 N 0.354495 -0.257520 0.981919 0
M  V30 14 C -1.061437 -0.122015 0.919548 0
M  V30 15 C -1.898299 0.424476 1.870741 0
M  V30 16 C -3.154515 0.301502 1.300182 0
M  V30 17 C -4.458799 0.731337 1.888798 0
M  V30 18 C -4.233021 1.349526 3.253686 0
M  V30 19 C -5.310061 -0.496551 2.112829 0
M  V30 20 C -5.210098 1.688455 1.014202 0
M  V30 21 N -3.026466 -0.280536 0.098756 0
M  V30 22 N -1.755166 -0.554842 -0.168592 0
M  V30 23 C -1.232110 -1.168990 -1.340560 0
M  V30 24 C -0.978017 -0.340908 -2.410368 0
M  V30 25 C -0.472834 -0.817332 -3.594036 0
M  V30 26 C -0.218267 -2.173546 -3.694528 0
M  V30 27 C -0.462423 -3.037738 -2.636124 0
M  V30 28 C -0.977093 -2.527847 -1.441123 0
M  V30 29 H 6.056065 -0.082596 2.143878 0
M  V30 30 H 5.811863 -1.073018 3.641963 0
M  V30 31 H 4.391386 -0.349374 2.866318 0
M  V30 32 H 6.570527 -3.356689 2.877425 0
M  V30 33 H 5.708494 -5.152880 1.097101 0
M  V30 34 H 3.897067 -3.877786 -0.401911 0
M  V30 35 H 2.805490 2.083527 0.858217 0
M  V30 36 H 2.762121 1.368486 -0.761409 0
M  V30 37 H 1.030749 -0.996171 1.337266 0
M  V30 38 H -1.642257 0.840166 2.814566 0
M  V30 39 H -5.190220 1.321793 3.828494 0
M  V30 40 H -3.451711 0.720603 3.753378 0
M  V30 41 H -3.870629 2.395095 3.152315 0
M  V30 42 H -5.996720 -0.314021 2.956110 0
M  V30 43 H -5.825622 -0.852603 1.199165 0
M  V30 44 H -4.647831 -1.356635 2.418317 0
M  V30 45 H -5.982866 2.169563 1.670124 0
M  V30 46 H -5.804221 1.150677 0.221955 0
M  V30 47 H -4.608098 2.496817 0.593293 0
M  V30 48 H -1.169814 0.721645 -2.352746 0
M  V30 49 H -0.283745 -0.158534 -4.409064 0
M  V30 50 H 0.179143 -2.572056 -4.615141 0
M  V30 51 H -0.267430 -4.115497 -2.695794 0
M  V30 52 H -1.188193 -3.144256 -0.584156 0
M  V30 END ATOM
M  V30 BEGIN BOND
M  V30 1 1 1 2
M  V30 2 1 2 3
M  V30 3 2 3 4
M  V30 4 1 4 5
M  V30 5 2 5 6
M  V30 6 1 6 7
M  V30 7 2 7 8
M  V30 8 1 7 9
M  V30 9 1 9 10
M  V30 10 1 10 11
M  V30 11 2 11 12
M  V30 12 1 11 13
M  V30 13 1 13 14
M  V30 14 2 14 15
M  V30 15 1 15 16
M  V30 16 1 16 17
M  V30 17 1 17 18
M  V30 18 1 17 19
M  V30 19 1 17 20
M  V30 20 2 16 21
M  V30 21 1 21 22
M  V30 22 1 22 23
M  V30 23 2 23 24
M  V30 24 1 24 25
M  V30 25 2 25 26
M  V30 26 1 26 27
M  V30 27 2 27 28
M  V30 28 1 6 2
M  V30 29 1 22 14
M  V30 30 1 28 23
M  V30 31 1 1 29
M  V30 32 1 1 30
M  V30 33 1 1 31
M  V30 34 1 3 32
M  V30 35 1 4 33
M  V30 36 1 5 34
M  V30 37 1 10 35
M  V30 38 1 10 36
M  V30 39 1 13 37
M  V30 40 1 15 38
M  V30 41 1 18 39
M  V30 42 1 18 40
M  V30 43 1 18 41
M  V30 44 1 19 42
M  V30 45 1 19 43
M  V30 46 1 19 44
M  V30 47 1 20 45
M  V30 48 1 20 46
M  V30 49 1 20 47
M  V30 50 1 24 48
M  V30 51 1 25 49
M  V30 52 1 26 50
M  V30 53 1 27 51
M  V30 54 1 28 52
M  V30 END BOND
M  V30 END CTAB
M  END
>  <Dataset>  (177) 
ChEMBL_Kinases

>  <Ligand_Instance>  (177) 
nan

>  <PDB_ID>  (177) 
nan

>  <Standardized_SMILES>  (177) 
Cn1cccc1C(=O)OCC(=O)Nc1cc(C(C)(C)C)nn1-c1ccccc1

>  <Name>  (177) 
nan

>  <Pocket>  (177) 
nan

>  <ATP_Site>  (177) 
nan

>  <Peripheral>  (177) 
nan

>  <Num_H_Atoms_ProtBoundConf>  (177) 
nan

>  <Num_Resolved_Atoms>  (177) 
nan

>  <Num_Not_Resolved_Atoms>  (177) 
nan

$$$$
CHEMBL1588755
     RDKit          3D

  0  0  0  0  0  0  0  0  0  0999 V3000
M  V30 BEGIN CTAB
M  V30 COUNTS 53 55 0 0 0
M  V30 BEGIN ATOM
M  V30 1 C 2.818135 -4.019200 2.970743 0
M  V30 2 O 3.639228 -3.340022 2.047300 0
M  V30 3 C 3.208464 -2.949023 0.787774 0
M  V30 4 O 2.011962 -3.321052 0.692258 0
M  V30 5 C 4.294634 -2.258136 0.050337 0
M  V30 6 S 3.836090 -1.711715 -1.589146 0
M  V30 7 C 2.602671 -0.423328 -1.577962 0
M  V30 8 N 3.128876 0.816380 -1.525589 0
M  V30 9 N 2.133948 1.718555 -1.524702 0
M  V30 10 C 0.956508 1.029185 -1.577711 0
M  V30 11 C -0.461852 1.471105 -1.604838 0
M  V30 12 N -1.055720 1.608216 -0.302359 0
M  V30 13 C -0.512017 2.514019 0.639839 0
M  V30 14 O 0.479195 3.095936 0.143383 0
M  V30 15 C -0.955008 2.799019 1.990603 0
M  V30 16 C -0.229469 3.737862 2.693262 0
M  V30 17 C -0.557880 4.087255 3.983329 0
M  V30 18 C -1.623442 3.529317 4.655987 0
M  V30 19 C -2.354828 2.591328 3.965212 0
M  V30 20 C -2.009037 2.255992 2.674505 0
M  V30 21 O -2.773536 1.313033 2.030600 0
M  V30 22 C -3.873699 0.682403 2.612879 0
M  V30 23 N 1.265400 -0.283001 -1.609711 0
M  V30 24 C 0.521864 -1.494468 -1.669171 0
M  V30 25 C -0.463757 -1.818640 -0.760654 0
M  V30 26 C -1.212721 -2.977687 -0.776223 0
M  V30 27 C -0.961043 -3.891609 -1.778733 0
M  V30 28 O -1.689738 -5.081655 -1.842638 0
M  V30 29 C -2.694923 -5.324292 -0.849007 0
M  V30 30 C 0.010682 -3.635958 -2.723472 0
M  V30 31 C 0.720686 -2.457147 -2.646879 0
M  V30 32 H 3.064869 -5.121392 2.995807 0
M  V30 33 H 1.751446 -3.829388 2.764075 0
M  V30 34 H 3.066880 -3.686463 4.021362 0
M  V30 35 H 4.676613 -1.432173 0.686124 0
M  V30 36 H 5.111620 -2.999490 -0.056436 0
M  V30 37 H -1.041861 0.823368 -2.278265 0
M  V30 38 H -0.536845 2.500255 -2.068109 0
M  V30 39 H -1.889927 1.051925 -0.023021 0
M  V30 40 H 0.630958 4.230616 2.237249 0
M  V30 41 H 0.046118 4.829734 4.486457 0
M  V30 42 H -1.882954 3.802076 5.668651 0
M  V30 43 H -3.200990 2.116021 4.432304 0
M  V30 44 H -4.691535 1.419053 2.723474 0
M  V30 45 H -4.261972 -0.078608 1.883732 0
M  V30 46 H -3.662353 0.165566 3.564456 0
M  V30 47 H -0.702623 -1.140059 0.046531 0
M  V30 48 H -1.975742 -3.174588 -0.031858 0
M  V30 49 H -3.457245 -4.516239 -0.848108 0
M  V30 50 H -2.236220 -5.277205 0.177391 0
M  V30 51 H -3.101976 -6.323610 -0.987792 0
M  V30 52 H 0.189664 -4.374398 -3.504825 0
M  V30 53 H 1.490469 -2.261656 -3.400815 0
M  V30 END ATOM
M  V30 BEGIN BOND
M  V30 1 1 1 2
M  V30 2 1 2 3
M  V30 3 2 3 4
M  V30 4 1 3 5
M  V30 5 1 5 6
M  V30 6 1 6 7
M  V30 7 2 7 8
M  V30 8 1 8 9
M  V30 9 2 9 10
M  V30 10 1 10 11
M  V30 11 1 11 12
M  V30 12 1 12 13
M  V30 13 2 13 14
M  V30 14 1 13 15
M  V30 15 2 15 16
M  V30 16 1 16 17
M  V30 17 2 17 18
M  V30 18 1 18 19
M  V30 19 2 19 20
M  V30 20 1 20 21
M  V30 21 1 21 22
M  V30 22 1 10 23
M  V30 23 1 23 24
M  V30 24 2 24 25
M  V30 25 1 25 26
M  V30 26 2 26 27
M  V30 27 1 27 28
M  V30 28 1 28 29
M  V30 29 1 27 30
M  V30 30 2 30 31
M  V30 31 1 23 7
M  V30 32 1 31 24
M  V30 33 1 20 15
M  V30 34 1 1 32
M  V30 35 1 1 33
M  V30 36 1 1 34
M  V30 37 1 5 35
M  V30 38 1 5 36
M  V30 39 1 11 37
M  V30 40 1 11 38
M  V30 41 1 12 39
M  V30 42 1 16 40
M  V30 43 1 17 41
M  V30 44 1 18 42
M  V30 45 1 19 43
M  V30 46 1 22 44
M  V30 47 1 22 45
M  V30 48 1 22 46
M  V30 49 1 25 47
M  V30 50 1 26 48
M  V30 51 1 29 49
M  V30 52 1 29 50
M  V30 53 1 29 51
M  V30 54 1 30 52
M  V30 55 1 31 53
M  V30 END BOND
M  V30 END CTAB
M  END
>  <Dataset>  (178) 
ChEMBL_Kinases

>  <Ligand_Instance>  (178) 
nan

>  <PDB_ID>  (178) 
nan

>  <Standardized_SMILES>  (178) 
COC(=O)CSc1nnc(CNC(=O)c2ccccc2OC)n1-c1ccc(OC)cc1

>  <Name>  (178) 
nan

>  <Pocket>  (178) 
nan

>  <ATP_Site>  (178) 
nan

>  <Peripheral>  (178) 
nan

>  <Num_H_Atoms_ProtBoundConf>  (178) 
nan

>  <Num_Resolved_Atoms>  (178) 
nan

>  <Num_Not_Resolved_Atoms>  (178) 
nan

$$$$
CHEMBL1588878
     RDKit          3D

  0  0  0  0  0  0  0  0  0  0999 V3000
M  V30 BEGIN CTAB
M  V30 COUNTS 41 41 0 0 0
M  V30 BEGIN ATOM
M  V30 1 C -0.202554 -4.489034 5.346878 0
M  V30 2 C -0.165193 -4.312952 3.883746 0
M  V30 3 C 0.949780 -4.626246 3.135884 0
M  V30 4 C 0.987169 -4.462539 1.767170 0
M  V30 5 C -0.118523 -3.969937 1.107462 0
M  V30 6 S -0.319115 -3.670177 -0.640603 0
M  V30 7 C 0.201264 -1.974268 -1.050996 0
M  V30 8 C -0.739616 -1.004984 -0.395962 0
M  V30 9 N -0.457173 0.375218 -0.630325 0
M  V30 10 C 0.778563 0.961426 -0.241776 0
M  V30 11 O 1.602377 0.169463 0.324403 0
M  V30 12 C 0.974261 2.415170 -0.533477 0
M  V30 13 C 0.864093 2.597164 -2.013373 0
M  V30 14 O 1.035276 3.932410 -2.372846 0
M  V30 15 C 2.303505 2.895764 0.009677 0
M  V30 16 O 3.365337 2.212383 -0.547879 0
M  V30 17 C -0.100423 3.237927 0.145104 0
M  V30 18 O -0.060988 3.057002 1.539421 0
M  V30 19 C -1.253246 -3.646824 1.836211 0
M  V30 20 C -1.286054 -3.813258 3.211481 0
M  V30 21 H 0.816425 -4.445052 5.787313 0
M  V30 22 H -0.682054 -5.455802 5.602025 0
M  V30 23 H -0.770143 -3.678994 5.862058 0
M  V30 24 H 1.844377 -5.015928 3.605637 0
M  V30 25 H 1.814477 -4.681098 1.108048 0
M  V30 26 H 0.139027 -1.923337 -2.175371 0
M  V30 27 H 1.253190 -1.841644 -0.809041 0
M  V30 28 H -0.706630 -1.206517 0.694422 0
M  V30 29 H -1.770754 -1.271273 -0.704903 0
M  V30 30 H -1.175608 0.971979 -1.100026 0
M  V30 31 H 1.546890 1.906484 -2.546243 0
M  V30 32 H -0.168621 2.268745 -2.304337 0
M  V30 33 H 0.184747 4.418432 -2.217639 0
M  V30 34 H 2.357110 2.771565 1.100411 0
M  V30 35 H 2.389401 3.963869 -0.220953 0
M  V30 36 H 4.029738 1.914454 0.117574 0
M  V30 37 H 0.078443 4.295817 -0.091461 0
M  V30 38 H -1.127866 2.983910 -0.230332 0
M  V30 39 H -0.515728 3.872206 1.912685 0
M  V30 40 H -2.198736 -3.249328 1.453032 0
M  V30 41 H -2.143591 -3.578248 3.831983 0
M  V30 END ATOM
M  V30 BEGIN BOND
M  V30 1 1 1 2
M  V30 2 2 2 3
M  V30 3 1 3 4
M  V30 4 2 4 5
M  V30 5 1 5 6
M  V30 6 1 6 7
M  V30 7 1 7 8
M  V30 8 1 8 9
M  V30 9 1 9 10
M  V30 10 2 10 11
M  V30 11 1 10 12
M  V30 12 1 12 13
M  V30 13 1 13 14
M  V30 14 1 12 15
M  V30 15 1 15 16
M  V30 16 1 12 17
M  V30 17 1 17 18
M  V30 18 1 5 19
M  V30 19 2 19 20
M  V30 20 1 20 2
M  V30 21 1 1 21
M  V30 22 1 1 22
M  V30 23 1 1 23
M  V30 24 1 3 24
M  V30 25 1 4 25
M  V30 26 1 7 26
M  V30 27 1 7 27
M  V30 28 1 8 28
M  V30 29 1 8 29
M  V30 30 1 9 30
M  V30 31 1 13 31
M  V30 32 1 13 32
M  V30 33 1 14 33
M  V30 34 1 15 34
M  V30 35 1 15 35
M  V30 36 1 16 36
M  V30 37 1 17 37
M  V30 38 1 17 38
M  V30 39 1 18 39
M  V30 40 1 19 40
M  V30 41 1 20 41
M  V30 END BOND
M  V30 END CTAB
M  END
>  <Dataset>  (179) 
ChEMBL_Kinases

>  <Ligand_Instance>  (179) 
nan

>  <PDB_ID>  (179) 
nan

>  <Standardized_SMILES>  (179) 
Cc1ccc(SCCNC(=O)C(CO)(CO)CO)cc1

>  <Name>  (179) 
nan

>  <Pocket>  (179) 
nan

>  <ATP_Site>  (179) 
nan

>  <Peripheral>  (179) 
nan

>  <Num_H_Atoms_ProtBoundConf>  (179) 
nan

>  <Num_Resolved_Atoms>  (179) 
nan

>  <Num_Not_Resolved_Atoms>  (179) 
nan

$$$$
CHEMBL1589064
     RDKit          3D

  0  0  0  0  0  0  0  0  0  0999 V3000
M  V30 BEGIN CTAB
M  V30 COUNTS 48 50 0 0 0
M  V30 BEGIN ATOM
M  V30 1 C 8.353378 1.997585 -0.371976 0
M  V30 2 C 8.597970 2.318476 0.908063 0
M  V30 3 C 7.992553 3.125804 1.974307 0
M  V30 4 S 6.472917 3.924351 1.401961 0
M  V30 5 C 5.249577 2.583506 1.088642 0
M  V30 6 N 4.985150 1.864811 -0.003404 0
M  V30 7 N 4.075949 0.988003 0.054181 0
M  V30 8 C 3.385664 0.748401 1.117897 0
M  V30 9 N 2.331513 -0.301558 1.109104 0
M  V30 10 C 1.137543 0.339990 0.727881 0
M  V30 11 O 1.169746 1.591225 0.479504 0
M  V30 12 C -0.176170 -0.306340 0.583888 0
M  V30 13 C -1.238103 0.480054 0.181394 0
M  V30 14 C -2.507684 -0.098301 0.033922 0
M  V30 15 C -2.696810 -1.441257 0.287985 0
M  V30 16 S -4.206142 -2.309044 0.150566 0
M  V30 17 O -4.363182 -3.348693 1.223146 0
M  V30 18 O -5.386975 -1.361251 0.326961 0
M  V30 19 N -4.399915 -2.978227 -1.419094 0
M  V30 20 C -4.427055 -1.916318 -2.400713 0
M  V30 21 C -4.599069 -2.497200 -3.808954 0
M  V30 22 C -5.863572 -3.305923 -3.902122 0
M  V30 23 C -6.733340 -2.426694 -4.784307 0
M  V30 24 C -5.689414 -1.719069 -5.614047 0
M  V30 25 O -4.635658 -1.507525 -4.758412 0
M  V30 26 C -1.621014 -2.215796 0.690760 0
M  V30 27 C -0.360059 -1.648895 0.839075 0
M  V30 28 S 3.971817 1.824266 2.301218 0
M  V30 29 H 7.667219 2.135446 -1.217665 0
M  V30 30 H 7.704518 2.105893 -1.229992 0
M  V30 31 H 9.514214 1.766844 1.062161 0
M  V30 32 H 7.688158 2.481033 2.848286 0
M  V30 33 H 8.702585 3.894731 2.301750 0
M  V30 34 H 2.231063 -1.299963 1.288149 0
M  V30 35 H -1.164574 1.548885 -0.037287 0
M  V30 36 H -3.381233 0.447294 -0.275665 0
M  V30 37 H -3.769132 -3.748336 -1.652653 0
M  V30 38 H -3.524110 -1.300387 -2.403663 0
M  V30 39 H -5.286728 -1.241735 -2.214576 0
M  V30 40 H -3.752045 -3.170023 -4.064312 0
M  V30 41 H -6.305580 -3.533172 -2.933955 0
M  V30 42 H -5.683920 -4.246425 -4.497136 0
M  V30 43 H -7.322851 -1.708585 -4.155154 0
M  V30 44 H -7.390937 -3.023773 -5.441513 0
M  V30 45 H -6.082485 -0.757492 -6.013706 0
M  V30 46 H -5.455039 -2.366652 -6.483020 0
M  V30 47 H -1.702897 -3.281723 0.906693 0
M  V30 48 H 0.459208 -2.278178 1.154793 0
M  V30 END ATOM
M  V30 BEGIN BOND
M  V30 1 2 1 2
M  V30 2 1 2 3
M  V30 3 1 3 4
M  V30 4 1 4 5
M  V30 5 2 5 6
M  V30 6 1 6 7
M  V30 7 2 7 8
M  V30 8 1 8 9
M  V30 9 1 9 10
M  V30 10 2 10 11
M  V30 11 1 10 12
M  V30 12 2 12 13
M  V30 13 1 13 14
M  V30 14 2 14 15
M  V30 15 1 15 16
M  V30 16 2 16 17
M  V30 17 2 16 18
M  V30 18 1 16 19
M  V30 19 1 19 20
M  V30 20 1 20 21
M  V30 21 1 21 22
M  V30 22 1 22 23
M  V30 23 1 23 24
M  V30 24 1 24 25
M  V30 25 1 15 26
M  V30 26 2 26 27
M  V30 27 1 8 28
M  V30 28 1 28 5
M  V30 29 1 27 12
M  V30 30 1 25 21
M  V30 31 1 1 29
M  V30 32 1 1 30
M  V30 33 1 2 31
M  V30 34 1 3 32
M  V30 35 1 3 33
M  V30 36 1 9 34
M  V30 37 1 13 35
M  V30 38 1 14 36
M  V30 39 1 19 37
M  V30 40 1 20 38
M  V30 41 1 20 39
M  V30 42 1 21 40
M  V30 43 1 22 41
M  V30 44 1 22 42
M  V30 45 1 23 43
M  V30 46 1 23 44
M  V30 47 1 24 45
M  V30 48 1 24 46
M  V30 49 1 26 47
M  V30 50 1 27 48
M  V30 END BOND
M  V30 END CTAB
M  END
>  <Dataset>  (180) 
ChEMBL_Kinases

>  <Ligand_Instance>  (180) 
nan

>  <PDB_ID>  (180) 
nan

>  <Standardized_SMILES>  (180) 
C=CCSc1nnc(NC(=O)c2ccc(S(=O)(=O)NCC3CCCO3)cc2)s1

>  <Name>  (180) 
nan

>  <Pocket>  (180) 
nan

>  <ATP_Site>  (180) 
nan

>  <Peripheral>  (180) 
nan

>  <Num_H_Atoms_ProtBoundConf>  (180) 
nan

>  <Num_Resolved_Atoms>  (180) 
nan

>  <Num_Not_Resolved_Atoms>  (180) 
nan

$$$$
CHEMBL1588297
     RDKit          3D

  0  0  0  0  0  0  0  0  0  0999 V3000
M  V30 BEGIN CTAB
M  V30 COUNTS 47 48 0 0 0
M  V30 BEGIN ATOM
M  V30 1 C 1.543127 -5.189582 1.829451 0
M  V30 2 O 0.380089 -4.687466 1.220351 0
M  V30 3 C 0.281052 -3.568986 0.434914 0
M  V30 4 C 1.320457 -2.729132 0.101799 0
M  V30 5 C 1.038825 -1.654864 -0.696394 0
M  V30 6 C -0.202106 -1.340750 -1.197332 0
M  V30 7 C -0.491530 -0.197332 -2.045891 0
M  V30 8 O -1.679260 -0.126253 -2.512486 0
M  V30 9 C 0.197663 0.975913 -2.573906 0
M  V30 10 O 1.396696 1.203443 -1.858034 0
M  V30 11 C 1.230895 1.633715 -0.514208 0
M  V30 12 O -0.008235 1.696049 -0.331566 0
M  V30 13 C 2.513420 1.854514 0.167769 0
M  V30 14 S 2.466202 2.686251 1.727297 0
M  V30 15 C 1.671617 1.888010 3.088277 0
M  V30 16 C 0.205792 1.742766 2.927326 0
M  V30 17 C -0.705327 2.789486 3.032397 0
M  V30 18 C -0.474374 4.234447 3.301257 0
M  V30 19 N -1.932209 2.271373 2.841522 0
M  V30 20 O -1.853401 0.989836 2.627199 0
M  V30 21 C -0.606081 0.646989 2.671735 0
M  V30 22 C 0.090492 -0.670387 2.504583 0
M  V30 23 C -1.212442 -2.196245 -0.846798 0
M  V30 24 C -0.975630 -3.284800 -0.048817 0
M  V30 25 O -2.060525 -4.104184 0.260447 0
M  V30 26 C -3.354030 -3.839802 -0.217723 0
M  V30 27 H 1.733669 -6.251749 1.524241 0
M  V30 28 H 2.442492 -4.590775 1.613061 0
M  V30 29 H 1.428989 -5.219630 2.934896 0
M  V30 30 H 2.307745 -2.939058 0.473114 0
M  V30 31 H 1.891284 -1.050951 -0.931919 0
M  V30 32 H -0.443803 1.897535 -2.433084 0
M  V30 33 H 0.394923 0.900555 -3.670989 0
M  V30 34 H 3.223676 2.443295 -0.491099 0
M  V30 35 H 3.053465 0.864625 0.266973 0
M  V30 36 H 2.118128 0.910115 3.379165 0
M  V30 37 H 1.798176 2.560154 3.989626 0
M  V30 38 H 0.511087 4.451514 3.737138 0
M  V30 39 H -1.231354 4.570782 4.066268 0
M  V30 40 H -0.716006 4.849750 2.406511 0
M  V30 41 H 0.323433 -1.088151 3.522498 0
M  V30 42 H 1.053099 -0.569906 1.988537 0
M  V30 43 H -0.633417 -1.340420 2.041157 0
M  V30 44 H -2.234103 -2.020390 -1.202523 0
M  V30 45 H -4.040995 -4.585320 0.248535 0
M  V30 46 H -3.460499 -3.940054 -1.313687 0
M  V30 47 H -3.711078 -2.819199 0.080009 0
M  V30 END ATOM
M  V30 BEGIN BOND
M  V30 1 1 1 2
M  V30 2 1 2 3
M  V30 3 2 3 4
M  V30 4 1 4 5
M  V30 5 2 5 6
M  V30 6 1 6 7
M  V30 7 2 7 8
M  V30 8 1 7 9
M  V30 9 1 9 10
M  V30 10 1 10 11
M  V30 11 2 11 12
M  V30 12 1 11 13
M  V30 13 1 13 14
M  V30 14 1 14 15
M  V30 15 1 15 16
M  V30 16 1 16 17
M  V30 17 1 17 18
M  V30 18 2 17 19
M  V30 19 1 19 20
M  V30 20 1 20 21
M  V30 21 1 21 22
M  V30 22 1 6 23
M  V30 23 2 23 24
M  V30 24 1 24 25
M  V30 25 1 25 26
M  V30 26 1 24 3
M  V30 27 2 21 16
M  V30 28 1 1 27
M  V30 29 1 1 28
M  V30 30 1 1 29
M  V30 31 1 4 30
M  V30 32 1 5 31
M  V30 33 1 9 32
M  V30 34 1 9 33
M  V30 35 1 13 34
M  V30 36 1 13 35
M  V30 37 1 15 36
M  V30 38 1 15 37
M  V30 39 1 18 38
M  V30 40 1 18 39
M  V30 41 1 18 40
M  V30 42 1 22 41
M  V30 43 1 22 42
M  V30 44 1 22 43
M  V30 45 1 23 44
M  V30 46 1 26 45
M  V30 47 1 26 46
M  V30 48 1 26 47
M  V30 END BOND
M  V30 END CTAB
M  END
>  <Dataset>  (181) 
ChEMBL_Kinases

>  <Ligand_Instance>  (181) 
nan

>  <PDB_ID>  (181) 
nan

>  <Standardized_SMILES>  (181) 
COc1ccc(C(=O)COC(=O)CSCc2c(C)noc2C)cc1OC

>  <Name>  (181) 
nan

>  <Pocket>  (181) 
nan

>  <ATP_Site>  (181) 
nan

>  <Peripheral>  (181) 
nan

>  <Num_H_Atoms_ProtBoundConf>  (181) 
nan

>  <Num_Resolved_Atoms>  (181) 
nan

>  <Num_Not_Resolved_Atoms>  (181) 
nan

$$$$
CHEMBL1593774
     RDKit          3D

  0  0  0  0  0  0  0  0  0  0999 V3000
M  V30 BEGIN CTAB
M  V30 COUNTS 43 46 0 0 0
M  V30 BEGIN ATOM
M  V30 1 C -0.825200 -3.671724 1.121786 0
M  V30 2 O -0.017737 -2.761182 0.379106 0
M  V30 3 C 1.234143 -3.116358 -0.099408 0
M  V30 4 C 1.863395 -4.334485 0.056017 0
M  V30 5 C 3.117328 -4.569837 -0.469140 0
M  V30 6 C 3.784376 -3.584514 -1.171465 0
M  V30 7 C 3.187321 -2.353685 -1.347515 0
M  V30 8 C 1.928428 -2.134068 -0.813932 0
M  V30 9 C 1.363541 -0.787415 -1.049864 0
M  V30 10 C 1.414196 -0.155359 -2.290855 0
M  V30 11 C 0.848093 1.117300 -2.398357 0
M  V30 12 C 0.251475 1.770534 -1.358130 0
M  V30 13 N -0.273377 2.989910 -1.523894 0
M  V30 14 C -0.845803 3.565421 -0.439899 0
M  V30 15 N -0.884570 2.932180 0.760531 0
M  V30 16 C -0.362399 1.707404 0.944942 0
M  V30 17 N -0.451976 1.116422 2.256211 0
M  V30 18 C -1.107606 -0.125692 2.634927 0
M  V30 19 C -2.172437 0.241589 3.647891 0
M  V30 20 O -2.058877 1.548296 4.101709 0
M  V30 21 C -0.759803 1.854834 4.502182 0
M  V30 22 C 0.196051 1.861523 3.324661 0
M  V30 23 C 0.221006 1.115254 -0.150452 0
M  V30 24 C 0.761198 -0.137334 0.016144 0
M  V30 25 H -0.161002 -4.299342 1.780980 0
M  V30 26 H -1.532288 -3.132938 1.784537 0
M  V30 27 H -1.403405 -4.326652 0.437933 0
M  V30 28 H 1.314507 -5.083504 0.610413 0
M  V30 29 H 3.503698 -5.574300 -0.276008 0
M  V30 30 H 4.763667 -3.837179 -1.555373 0
M  V30 31 H 3.710199 -1.573762 -1.900925 0
M  V30 32 H 1.884458 -0.684008 -3.087690 0
M  V30 33 H 0.904177 1.573051 -3.363189 0
M  V30 34 H -1.290319 4.569121 -0.531613 0
M  V30 35 H -1.551871 -0.643410 1.760424 0
M  V30 36 H -0.353050 -0.758057 3.154584 0
M  V30 37 H -2.204292 -0.490320 4.479941 0
M  V30 38 H -3.154110 0.166755 3.124318 0
M  V30 39 H -0.406501 1.141033 5.268857 0
M  V30 40 H -0.774148 2.871043 4.919777 0
M  V30 41 H 0.457065 2.901718 3.030495 0
M  V30 42 H 1.139065 1.334493 3.635808 0
M  V30 43 H 0.718351 -0.622136 0.982323 0
M  V30 END ATOM
M  V30 BEGIN BOND
M  V30 1 1 1 2
M  V30 2 1 2 3
M  V30 3 2 3 4
M  V30 4 1 4 5
M  V30 5 2 5 6
M  V30 6 1 6 7
M  V30 7 2 7 8
M  V30 8 1 8 9
M  V30 9 2 9 10
M  V30 10 1 10 11
M  V30 11 2 11 12
M  V30 12 1 12 13
M  V30 13 2 13 14
M  V30 14 1 14 15
M  V30 15 2 15 16
M  V30 16 1 16 17
M  V30 17 1 17 18
M  V30 18 1 18 19
M  V30 19 1 19 20
M  V30 20 1 20 21
M  V30 21 1 21 22
M  V30 22 1 16 23
M  V30 23 2 23 24
M  V30 24 1 8 3
M  V30 25 1 24 9
M  V30 26 1 23 12
M  V30 27 1 22 17
M  V30 28 1 1 25
M  V30 29 1 1 26
M  V30 30 1 1 27
M  V30 31 1 4 28
M  V30 32 1 5 29
M  V30 33 1 6 30
M  V30 34 1 7 31
M  V30 35 1 10 32
M  V30 36 1 11 33
M  V30 37 1 14 34
M  V30 38 1 18 35
M  V30 39 1 18 36
M  V30 40 1 19 37
M  V30 41 1 19 38
M  V30 42 1 21 39
M  V30 43 1 21 40
M  V30 44 1 22 41
M  V30 45 1 22 42
M  V30 46 1 24 43
M  V30 END BOND
M  V30 END CTAB
M  END
>  <Dataset>  (182) 
ChEMBL_Kinases

>  <Ligand_Instance>  (182) 
nan

>  <PDB_ID>  (182) 
nan

>  <Standardized_SMILES>  (182) 
COc1ccccc1-c1ccc2ncnc(N3CCOCC3)c2c1

>  <Name>  (182) 
nan

>  <Pocket>  (182) 
nan

>  <ATP_Site>  (182) 
nan

>  <Peripheral>  (182) 
nan

>  <Num_H_Atoms_ProtBoundConf>  (182) 
nan

>  <Num_Resolved_Atoms>  (182) 
nan

>  <Num_Not_Resolved_Atoms>  (182) 
nan

$$$$
CHEMBL1593375
     RDKit          3D

  0  0  0  0  0  0  0  0  0  0999 V3000
M  V30 BEGIN CTAB
M  V30 COUNTS 54 58 0 0 0
M  V30 BEGIN ATOM
M  V30 1 C 1.051908 -3.905949 4.373035 0
M  V30 2 C 2.372349 -4.421691 3.894733 0
M  V30 3 N 2.567450 -4.321826 2.472323 0
M  V30 4 C 2.412755 -2.954763 2.107348 0
M  V30 5 N 3.204827 -1.901933 2.463049 0
M  V30 6 C 2.922704 -0.651716 2.010332 0
M  V30 7 C 1.808496 -0.596378 1.200771 0
M  V30 8 N 1.517455 0.655514 0.740896 0
M  V30 9 C 0.464981 0.892926 -0.059742 0
M  V30 10 C 0.220133 2.263118 -0.507660 0
M  V30 11 C 0.134462 2.669643 -1.816205 0
M  V30 12 N -0.084031 4.004012 -1.850777 0
M  V30 13 C -0.250945 4.954326 -2.951756 0
M  V30 14 C -0.131832 4.420638 -0.554791 0
M  V30 15 C -0.327197 5.655147 0.022980 0
M  V30 16 C -0.350697 5.911218 1.367812 0
M  V30 17 C -0.160670 4.823197 2.228109 0
M  V30 18 C 0.041398 3.543916 1.694689 0
M  V30 19 C 0.051291 3.373349 0.315827 0
M  V30 20 C -0.380936 -0.131403 -0.461291 0
M  V30 21 O -1.362310 0.031695 -1.200459 0
M  V30 22 N -0.088239 -1.373787 -0.002022 0
M  V30 23 C -0.870782 -2.536907 -0.323640 0
M  V30 24 C -0.430232 -3.713172 -0.899777 0
M  V30 25 C -1.339753 -4.727492 -1.124631 0
M  V30 26 C -2.667592 -4.590567 -0.788728 0
M  V30 27 O -3.634490 -5.559268 -0.979281 0
M  V30 28 C -3.389062 -6.832896 -1.538421 0
M  V30 29 C -3.080500 -3.407303 -0.217865 0
M  V30 30 C -2.199610 -2.343927 0.034072 0
M  V30 31 C 0.964155 -1.599108 0.797899 0
M  V30 32 N 1.319001 -2.805235 1.293938 0
M  V30 33 H 0.232051 -4.078052 3.659886 0
M  V30 34 H 0.837122 -4.339849 5.387509 0
M  V30 35 H 1.043735 -2.799695 4.565810 0
M  V30 36 H 3.170038 -3.795023 4.386657 0
M  V30 37 H 2.588402 -5.447542 4.295104 0
M  V30 38 H 2.782080 -5.116374 1.826233 0
M  V30 39 H 3.530951 0.192289 2.277991 0
M  V30 40 H 0.215256 2.097561 -2.734736 0
M  V30 41 H -1.241982 5.414938 -2.900553 0
M  V30 42 H -0.047545 4.479313 -3.928468 0
M  V30 43 H 0.544188 5.732471 -2.767976 0
M  V30 44 H -0.474378 6.531457 -0.614326 0
M  V30 45 H -0.509090 6.914537 1.762566 0
M  V30 46 H -0.169311 4.952994 3.318422 0
M  V30 47 H 0.193079 2.675261 2.343860 0
M  V30 48 H 0.613009 -3.730717 -1.123798 0
M  V30 49 H -0.987912 -5.637272 -1.570870 0
M  V30 50 H -4.220966 -7.149320 -2.208849 0
M  V30 51 H -3.294364 -7.596438 -0.713032 0
M  V30 52 H -2.462949 -6.904613 -2.131337 0
M  V30 53 H -4.128965 -3.279955 0.053982 0
M  V30 54 H -2.625980 -1.462804 0.483856 0
M  V30 END ATOM
M  V30 BEGIN BOND
M  V30 1 1 1 2
M  V30 2 1 2 3
M  V30 3 1 3 4
M  V30 4 2 4 5
M  V30 5 1 5 6
M  V30 6 2 6 7
M  V30 7 1 7 8
M  V30 8 2 8 9
M  V30 9 1 9 10
M  V30 10 2 10 11
M  V30 11 1 11 12
M  V30 12 1 12 13
M  V30 13 1 12 14
M  V30 14 2 14 15
M  V30 15 1 15 16
M  V30 16 2 16 17
M  V30 17 1 17 18
M  V30 18 2 18 19
M  V30 19 1 9 20
M  V30 20 2 20 21
M  V30 21 1 20 22
M  V30 22 1 22 23
M  V30 23 2 23 24
M  V30 24 1 24 25
M  V30 25 2 25 26
M  V30 26 1 26 27
M  V30 27 1 27 28
M  V30 28 1 26 29
M  V30 29 2 29 30
M  V30 30 1 22 31
M  V30 31 2 31 32
M  V30 32 1 32 4
M  V30 33 1 31 7
M  V30 34 1 19 10
M  V30 35 1 30 23
M  V30 36 1 19 14
M  V30 37 1 1 33
M  V30 38 1 1 34
M  V30 39 1 1 35
M  V30 40 1 2 36
M  V30 41 1 2 37
M  V30 42 1 3 38
M  V30 43 1 6 39
M  V30 44 1 11 40
M  V30 45 1 13 41
M  V30 46 1 13 42
M  V30 47 1 13 43
M  V30 48 1 15 44
M  V30 49 1 16 45
M  V30 50 1 17 46
M  V30 51 1 18 47
M  V30 52 1 24 48
M  V30 53 1 25 49
M  V30 54 1 28 50
M  V30 55 1 28 51
M  V30 56 1 28 52
M  V30 57 1 29 53
M  V30 58 1 30 54
M  V30 END BOND
M  V30 END CTAB
M  END
>  <Dataset>  (183) 
ChEMBL_Kinases

>  <Ligand_Instance>  (183) 
nan

>  <PDB_ID>  (183) 
nan

>  <Standardized_SMILES>  (183) 
CCNc1ncc2nc(-c3cn(C)c4ccccc34)c(=O)n(-c3ccc(OC)cc3)c2n1

>  <Name>  (183) 
nan

>  <Pocket>  (183) 
nan

>  <ATP_Site>  (183) 
nan

>  <Peripheral>  (183) 
nan

>  <Num_H_Atoms_ProtBoundConf>  (183) 
nan

>  <Num_Resolved_Atoms>  (183) 
nan

>  <Num_Not_Resolved_Atoms>  (183) 
nan

$$$$
CHEMBL1593191
     RDKit          3D

  0  0  0  0  0  0  0  0  0  0999 V3000
M  V30 BEGIN CTAB
M  V30 COUNTS 28 29 0 0 0
M  V30 BEGIN ATOM
M  V30 1 F 1.554382 -4.349044 4.745235 0
M  V30 2 C 1.284671 -3.948646 3.496326 0
M  V30 3 C 0.511187 -4.757685 2.690862 0
M  V30 4 C 0.249802 -4.324210 1.416064 0
M  V30 5 C 0.767226 -3.115246 1.007757 0
M  V30 6 C 1.537805 -2.297423 1.793432 0
M  V30 7 C 2.115725 -1.016006 1.435192 0
M  V30 8 N 2.075253 -0.323705 0.351316 0
M  V30 9 N 1.365112 -0.833728 -0.718060 0
M  V30 10 C 0.355751 -0.194842 -1.198668 0
M  V30 11 C -0.221940 1.056369 -0.798853 0
M  V30 12 C -1.312174 1.492246 -1.511705 0
M  V30 13 C -1.934992 2.681266 -1.202525 0
M  V30 14 C -1.526434 3.507446 -0.181249 0
M  V30 15 C -0.433759 3.083030 0.542675 0
M  V30 16 F 0.021445 3.848864 1.562676 0
M  V30 17 C 0.173161 1.891449 0.216306 0
M  V30 18 C 1.788961 -2.743972 3.060944 0
M  V30 19 H 0.124071 -5.703566 3.055034 0
M  V30 20 H -0.352206 -4.926534 0.750361 0
M  V30 21 H 0.536076 -2.824111 0.011156 0
M  V30 22 H 2.712443 -0.453013 2.143150 0
M  V30 23 H -0.040340 -0.769523 -2.016290 0
M  V30 24 H -1.705872 0.907747 -2.334542 0
M  V30 25 H -2.787653 2.971144 -1.798916 0
M  V30 26 H -2.063634 4.418434 -0.001900 0
M  V30 27 H 1.013159 1.627066 0.819990 0
M  V30 28 H 2.398379 -2.156794 3.766843 0
M  V30 END ATOM
M  V30 BEGIN BOND
M  V30 1 1 1 2
M  V30 2 2 2 3
M  V30 3 1 3 4
M  V30 4 2 4 5
M  V30 5 1 5 6
M  V30 6 1 6 7
M  V30 7 2 7 8
M  V30 8 1 8 9
M  V30 9 2 9 10
M  V30 10 1 10 11
M  V30 11 2 11 12
M  V30 12 1 12 13
M  V30 13 2 13 14
M  V30 14 1 14 15
M  V30 15 1 15 16
M  V30 16 2 15 17
M  V30 17 2 6 18
M  V30 18 1 18 2
M  V30 19 1 17 11
M  V30 20 1 3 19
M  V30 21 1 4 20
M  V30 22 1 5 21
M  V30 23 1 7 22
M  V30 24 1 10 23
M  V30 25 1 12 24
M  V30 26 1 13 25
M  V30 27 1 14 26
M  V30 28 1 17 27
M  V30 29 1 18 28
M  V30 END BOND
M  V30 END CTAB
M  END
>  <Dataset>  (184) 
ChEMBL_Kinases

>  <Ligand_Instance>  (184) 
nan

>  <PDB_ID>  (184) 
nan

>  <Standardized_SMILES>  (184) 
Fc1cccc(/C=N\N=C/c2cccc(F)c2)c1

>  <Name>  (184) 
nan

>  <Pocket>  (184) 
nan

>  <ATP_Site>  (184) 
nan

>  <Peripheral>  (184) 
nan

>  <Num_H_Atoms_ProtBoundConf>  (184) 
nan

>  <Num_Resolved_Atoms>  (184) 
nan

>  <Num_Not_Resolved_Atoms>  (184) 
nan

$$$$
CHEMBL1593134
     RDKit          3D

  0  0  0  0  0  0  0  0  0  0999 V3000
M  V30 BEGIN CTAB
M  V30 COUNTS 46 48 0 0 0
M  V30 BEGIN ATOM
M  V30 1 C 0.366937 -5.156370 2.171629 0
M  V30 2 O -0.503525 -4.918482 1.090364 0
M  V30 3 C 0.186347 -4.314776 0.035159 0
M  V30 4 C -0.778840 -4.087946 -1.074732 0
M  V30 5 N -1.859789 -3.234362 -0.663154 0
M  V30 6 C -1.615209 -1.892705 -0.261514 0
M  V30 7 N -0.386375 -1.377533 -0.260011 0
M  V30 8 C -0.042930 -0.132948 0.091654 0
M  V30 9 C 1.350725 0.305500 0.046814 0
M  V30 10 C 2.319818 -0.586003 -0.366153 0
M  V30 11 C 3.638487 -0.131590 -0.395970 0
M  V30 12 C 3.936368 1.162505 -0.022502 0
M  V30 13 C 2.961461 2.061370 0.393586 0
M  V30 14 N 3.360794 3.378369 0.760906 0
M  V30 15 S 2.684787 4.034365 2.209280 0
M  V30 16 C 3.129925 3.067365 3.630256 0
M  V30 17 O 3.161207 5.428270 2.461812 0
M  V30 18 O 1.185570 4.098759 2.139923 0
M  V30 19 C 1.664124 1.595164 0.416813 0
M  V30 20 N -1.012952 0.711139 0.489632 0
M  V30 21 C -2.314092 0.298917 0.530571 0
M  V30 22 C -3.342544 1.132746 0.933056 0
M  V30 23 C -4.636745 0.700021 0.966573 0
M  V30 24 C -4.931079 -0.609224 0.587772 0
M  V30 25 C -3.897853 -1.410835 0.194936 0
M  V30 26 C -2.582149 -0.999493 0.151738 0
M  V30 27 H 0.768870 -4.148935 2.484304 0
M  V30 28 H 1.186632 -5.782823 1.787474 0
M  V30 29 H -0.170683 -5.535118 3.038027 0
M  V30 30 H 0.636049 -3.382673 0.416860 0
M  V30 31 H 1.004359 -4.998895 -0.311418 0
M  V30 32 H -0.244761 -3.582004 -1.935334 0
M  V30 33 H -1.133955 -5.059930 -1.465501 0
M  V30 34 H -2.800714 -3.677705 -0.687012 0
M  V30 35 H 2.107973 -1.596206 -0.660434 0
M  V30 36 H 4.442499 -0.794107 -0.713982 0
M  V30 37 H 4.994199 1.464898 -0.066249 0
M  V30 38 H 4.044036 3.850720 0.111598 0
M  V30 39 H 2.378621 3.184228 4.442439 0
M  V30 40 H 4.126990 3.373626 3.988695 0
M  V30 41 H 3.141781 1.975222 3.408768 0
M  V30 42 H 0.896202 2.257297 0.729900 0
M  V30 43 H -3.015959 2.130350 1.208126 0
M  V30 44 H -5.345471 1.449867 1.299856 0
M  V30 45 H -5.975095 -0.889508 0.636767 0
M  V30 46 H -4.195745 -2.406999 -0.083421 0
M  V30 END ATOM
M  V30 BEGIN BOND
M  V30 1 1 1 2
M  V30 2 1 2 3
M  V30 3 1 3 4
M  V30 4 1 4 5
M  V30 5 1 5 6
M  V30 6 2 6 7
M  V30 7 1 7 8
M  V30 8 1 8 9
M  V30 9 2 9 10
M  V30 10 1 10 11
M  V30 11 2 11 12
M  V30 12 1 12 13
M  V30 13 1 13 14
M  V30 14 1 14 15
M  V30 15 1 15 16
M  V30 16 2 15 17
M  V30 17 2 15 18
M  V30 18 2 13 19
M  V30 19 2 8 20
M  V30 20 1 20 21
M  V30 21 2 21 22
M  V30 22 1 22 23
M  V30 23 2 23 24
M  V30 24 1 24 25
M  V30 25 2 25 26
M  V30 26 1 26 6
M  V30 27 1 19 9
M  V30 28 1 26 21
M  V30 29 1 1 27
M  V30 30 1 1 28
M  V30 31 1 1 29
M  V30 32 1 3 30
M  V30 33 1 3 31
M  V30 34 1 4 32
M  V30 35 1 4 33
M  V30 36 1 5 34
M  V30 37 1 10 35
M  V30 38 1 11 36
M  V30 39 1 12 37
M  V30 40 1 14 38
M  V30 41 1 16 39
M  V30 42 1 16 40
M  V30 43 1 16 41
M  V30 44 1 19 42
M  V30 45 1 22 43
M  V30 46 1 23 44
M  V30 47 1 24 45
M  V30 48 1 25 46
M  V30 END BOND
M  V30 END CTAB
M  END
>  <Dataset>  (185) 
ChEMBL_Kinases

>  <Ligand_Instance>  (185) 
nan

>  <PDB_ID>  (185) 
nan

>  <Standardized_SMILES>  (185) 
COCCNc1nc(-c2cccc(NS(C)(=O)=O)c2)nc2ccccc12

>  <Name>  (185) 
nan

>  <Pocket>  (185) 
nan

>  <ATP_Site>  (185) 
nan

>  <Peripheral>  (185) 
nan

>  <Num_H_Atoms_ProtBoundConf>  (185) 
nan

>  <Num_Resolved_Atoms>  (185) 
nan

>  <Num_Not_Resolved_Atoms>  (185) 
nan

$$$$
CHEMBL1592982
     RDKit          3D

  0  0  0  0  0  0  0  0  0  0999 V3000
M  V30 BEGIN CTAB
M  V30 COUNTS 55 60 0 0 0
M  V30 BEGIN ATOM
M  V30 1 C 1.546288 -2.539502 1.931513 0
M  V30 2 O 1.412491 -1.698130 3.051828 0
M  V30 3 C 1.643227 -0.331404 3.024339 0
M  V30 4 C 1.484200 0.413723 4.184183 0
M  V30 5 C 1.704113 1.789669 4.206907 0
M  V30 6 C 2.092795 2.456279 3.054893 0
M  V30 7 N 2.381157 3.742776 2.745148 0
M  V30 8 C 2.714163 3.843777 1.446403 0
M  V30 9 C 2.655196 2.587084 0.832837 0
M  V30 10 C 2.936096 2.282088 -0.557103 0
M  V30 11 C 1.820221 2.131531 -1.508342 0
M  V30 12 N 0.820381 1.160829 -1.253988 0
M  V30 13 C -0.236979 1.452615 -0.346935 0
M  V30 14 N -0.326869 2.655755 0.234996 0
M  V30 15 C -1.329715 2.951651 1.065620 0
M  V30 16 N -2.319652 2.073524 1.380907 0
M  V30 17 C -2.292036 0.836796 0.828395 0
M  V30 18 C -3.280391 -0.076407 1.128303 0
M  V30 19 C -3.254922 -1.336616 0.567981 0
M  V30 20 C -2.207036 -1.645310 -0.299500 0
M  V30 21 C -2.166050 -2.993890 -0.904900 0
M  V30 22 C -1.629696 -3.201439 -2.159978 0
M  V30 23 C -1.625218 -4.505946 -2.661384 0
M  V30 24 C -2.147492 -5.556968 -1.912169 0
M  V30 25 C -2.683738 -5.310369 -0.643192 0
M  V30 26 C -2.697727 -4.032710 -0.130843 0
M  V30 27 O -3.107642 -6.573942 -0.189266 0
M  V30 28 C -2.370057 -7.555059 -0.934829 0
M  V30 29 O -2.251658 -6.918535 -2.196766 0
M  V30 30 C -1.244776 -0.697634 -0.566435 0
M  V30 31 C -1.242759 0.568309 -0.023129 0
M  V30 32 C 2.260337 1.745738 1.883423 0
M  V30 33 C 2.029974 0.389020 1.916420 0
M  V30 34 H 1.277176 -1.968293 1.019548 0
M  V30 35 H 2.595747 -2.931381 1.830774 0
M  V30 36 H 0.824002 -3.397327 1.964844 0
M  V30 37 H 1.180824 -0.098072 5.087845 0
M  V30 38 H 1.576977 2.363694 5.119697 0
M  V30 39 H 2.328587 4.492705 3.470065 0
M  V30 40 H 2.982745 4.801815 0.995901 0
M  V30 41 H 3.585754 1.359328 -0.672092 0
M  V30 42 H 3.615034 3.088352 -0.987984 0
M  V30 43 H 1.373474 3.170256 -1.660431 0
M  V30 44 H 2.271695 1.919968 -2.526296 0
M  V30 45 H 0.911171 0.257753 -1.755378 0
M  V30 46 H -1.367627 3.936566 1.516528 0
M  V30 47 H -4.068081 0.247469 1.819823 0
M  V30 48 H -4.034479 -2.015059 0.823034 0
M  V30 49 H -1.247322 -2.340972 -2.674689 0
M  V30 50 H -1.202431 -4.654924 -3.646422 0
M  V30 51 H -3.121325 -3.874617 0.858329 0
M  V30 52 H -2.916001 -8.495991 -0.978381 0
M  V30 53 H -1.380285 -7.742544 -0.452946 0
M  V30 54 H -0.493368 -1.025146 -1.234062 0
M  V30 55 H 2.166587 -0.141819 0.994204 0
M  V30 END ATOM
M  V30 BEGIN BOND
M  V30 1 1 1 2
M  V30 2 1 2 3
M  V30 3 2 3 4
M  V30 4 1 4 5
M  V30 5 2 5 6
M  V30 6 1 6 7
M  V30 7 1 7 8
M  V30 8 2 8 9
M  V30 9 1 9 10
M  V30 10 1 10 11
M  V30 11 1 11 12
M  V30 12 1 12 13
M  V30 13 2 13 14
M  V30 14 1 14 15
M  V30 15 2 15 16
M  V30 16 1 16 17
M  V30 17 2 17 18
M  V30 18 1 18 19
M  V30 19 2 19 20
M  V30 20 1 20 21
M  V30 21 2 21 22
M  V30 22 1 22 23
M  V30 23 2 23 24
M  V30 24 1 24 25
M  V30 25 2 25 26
M  V30 26 1 25 27
M  V30 27 1 27 28
M  V30 28 1 28 29
M  V30 29 1 20 30
M  V30 30 2 30 31
M  V30 31 1 9 32
M  V30 32 2 32 33
M  V30 33 1 33 3
M  V30 34 1 32 6
M  V30 35 1 31 13
M  V30 36 1 31 17
M  V30 37 1 26 21
M  V30 38 1 29 24
M  V30 39 1 1 34
M  V30 40 1 1 35
M  V30 41 1 1 36
M  V30 42 1 4 37
M  V30 43 1 5 38
M  V30 44 1 7 39
M  V30 45 1 8 40
M  V30 46 1 10 41
M  V30 47 1 10 42
M  V30 48 1 11 43
M  V30 49 1 11 44
M  V30 50 1 12 45
M  V30 51 1 15 46
M  V30 52 1 18 47
M  V30 53 1 19 48
M  V30 54 1 22 49
M  V30 55 1 23 50
M  V30 56 1 26 51
M  V30 57 1 28 52
M  V30 58 1 28 53
M  V30 59 1 30 54
M  V30 60 1 33 55
M  V30 END BOND
M  V30 END CTAB
M  END
>  <Dataset>  (186) 
ChEMBL_Kinases

>  <Ligand_Instance>  (186) 
nan

>  <PDB_ID>  (186) 
nan

>  <Standardized_SMILES>  (186) 
COc1ccc2[nH]cc(CCNc3ncnc4ccc(-c5ccc6c(c5)OCO6)cc34)c2c1

>  <Name>  (186) 
nan

>  <Pocket>  (186) 
nan

>  <ATP_Site>  (186) 
nan

>  <Peripheral>  (186) 
nan

>  <Num_H_Atoms_ProtBoundConf>  (186) 
nan

>  <Num_Resolved_Atoms>  (186) 
nan

>  <Num_Not_Resolved_Atoms>  (186) 
nan

$$$$
CHEMBL1592803
     RDKit          3D

  0  0  0  0  0  0  0  0  0  0999 V3000
M  V30 BEGIN CTAB
M  V30 COUNTS 52 56 0 0 0
M  V30 BEGIN ATOM
M  V30 1 C 3.375494 -5.898177 4.479672 0
M  V30 2 O 2.920611 -5.709069 3.155874 0
M  V30 3 C 2.989519 -4.502823 2.486402 0
M  V30 4 C 3.510175 -3.358176 3.043002 0
M  V30 5 C 3.512599 -2.219316 2.247774 0
M  V30 6 C 3.023747 -2.175781 0.937456 0
M  V30 7 C 3.071615 -0.926234 0.181969 0
M  V30 8 N 1.806201 -0.238125 0.051488 0
M  V30 9 C 1.732444 0.990790 -0.675702 0
M  V30 10 N 2.840673 1.485728 -1.216901 0
M  V30 11 C 2.833091 2.639048 -1.908435 0
M  V30 12 N 1.665742 3.328664 -2.066448 0
M  V30 13 C 0.516577 2.868642 -1.537337 0
M  V30 14 C -0.631289 3.607185 -1.732102 0
M  V30 15 C -1.806174 3.134166 -1.192998 0
M  V30 16 C -1.771743 1.949096 -0.488318 0
M  V30 17 C -3.047099 1.488117 0.061576 0
M  V30 18 C -3.216352 0.101602 0.161980 0
M  V30 19 C -4.434051 -0.275730 0.683752 0
M  V30 20 C -5.443566 0.565042 1.092206 0
M  V30 21 C -5.217531 1.922315 0.968540 0
M  V30 22 C -4.033623 2.367283 0.459590 0
M  V30 23 O -6.358641 2.561666 1.436767 0
M  V30 24 C -7.056668 1.624241 2.252918 0
M  V30 25 O -6.710849 0.400623 1.630143 0
M  V30 26 C -0.623686 1.210305 -0.293160 0
M  V30 27 C 0.553045 1.684516 -0.833351 0
M  V30 28 C 2.504470 -3.365214 0.415299 0
M  V30 29 O 2.043975 -3.237340 -0.880894 0
M  V30 30 C 1.478824 -4.253151 -1.645892 0
M  V30 31 C 2.497980 -4.497688 1.196118 0
M  V30 32 H 4.446005 -6.169946 4.515613 0
M  V30 33 H 3.228635 -4.985137 5.069119 0
M  V30 34 H 2.841536 -6.742101 4.973445 0
M  V30 35 H 3.892858 -3.357370 4.043362 0
M  V30 36 H 3.927331 -1.339588 2.713605 0
M  V30 37 H 3.459216 -1.044165 -0.851891 0
M  V30 38 H 3.782282 -0.235327 0.681278 0
M  V30 39 H 1.033300 -0.742521 0.531946 0
M  V30 40 H 3.769484 2.992329 -2.326604 0
M  V30 41 H -0.581749 4.529692 -2.296681 0
M  V30 42 H -2.700460 3.725690 -1.354726 0
M  V30 43 H -2.469069 -0.619294 -0.138601 0
M  V30 44 H -4.639270 -1.339443 0.792520 0
M  V30 45 H -3.843328 3.425811 0.357161 0
M  V30 46 H -8.147089 1.804005 2.232944 0
M  V30 47 H -6.644211 1.574468 3.274393 0
M  V30 48 H -0.658894 0.288352 0.268241 0
M  V30 49 H 1.705253 -5.246734 -1.228366 0
M  V30 50 H 0.393970 -4.124141 -1.833163 0
M  V30 51 H 1.950059 -4.187866 -2.666957 0
M  V30 52 H 2.092968 -5.375462 0.756065 0
M  V30 END ATOM
M  V30 BEGIN BOND
M  V30 1 1 1 2
M  V30 2 1 2 3
M  V30 3 2 3 4
M  V30 4 1 4 5
M  V30 5 2 5 6
M  V30 6 1 6 7
M  V30 7 1 7 8
M  V30 8 1 8 9
M  V30 9 2 9 10
M  V30 10 1 10 11
M  V30 11 2 11 12
M  V30 12 1 12 13
M  V30 13 2 13 14
M  V30 14 1 14 15
M  V30 15 2 15 16
M  V30 16 1 16 17
M  V30 17 2 17 18
M  V30 18 1 18 19
M  V30 19 2 19 20
M  V30 20 1 20 21
M  V30 21 2 21 22
M  V30 22 1 21 23
M  V30 23 1 23 24
M  V30 24 1 24 25
M  V30 25 1 16 26
M  V30 26 2 26 27
M  V30 27 1 6 28
M  V30 28 1 28 29
M  V30 29 1 29 30
M  V30 30 2 28 31
M  V30 31 1 31 3
M  V30 32 1 27 9
M  V30 33 1 27 13
M  V30 34 1 22 17
M  V30 35 1 25 20
M  V30 36 1 1 32
M  V30 37 1 1 33
M  V30 38 1 1 34
M  V30 39 1 4 35
M  V30 40 1 5 36
M  V30 41 1 7 37
M  V30 42 1 7 38
M  V30 43 1 8 39
M  V30 44 1 11 40
M  V30 45 1 14 41
M  V30 46 1 15 42
M  V30 47 1 18 43
M  V30 48 1 19 44
M  V30 49 1 22 45
M  V30 50 1 24 46
M  V30 51 1 24 47
M  V30 52 1 26 48
M  V30 53 1 30 49
M  V30 54 1 30 50
M  V30 55 1 30 51
M  V30 56 1 31 52
M  V30 END BOND
M  V30 END CTAB
M  END
>  <Dataset>  (187) 
ChEMBL_Kinases

>  <Ligand_Instance>  (187) 
nan

>  <PDB_ID>  (187) 
nan

>  <Standardized_SMILES>  (187) 
COc1ccc(CNc2ncnc3ccc(-c4ccc5c(c4)OCO5)cc23)c(OC)c1

>  <Name>  (187) 
nan

>  <Pocket>  (187) 
nan

>  <ATP_Site>  (187) 
nan

>  <Peripheral>  (187) 
nan

>  <Num_H_Atoms_ProtBoundConf>  (187) 
nan

>  <Num_Resolved_Atoms>  (187) 
nan

>  <Num_Not_Resolved_Atoms>  (187) 
nan

$$$$
CHEMBL1592744
     RDKit          3D

  0  0  0  0  0  0  0  0  0  0999 V3000
M  V30 BEGIN CTAB
M  V30 COUNTS 38 42 0 0 0
M  V30 BEGIN ATOM
M  V30 1 O 2.170610 -1.089915 1.984373 0
M  V30 2 C 1.498217 0.113054 2.149833 0 CFG=2
M  V30 3 C 0.417658 0.335873 1.137942 0 CFG=2
M  V30 4 C -0.673375 -0.673479 1.187752 0
M  V30 5 C -1.518759 -0.617572 2.268086 0
M  V30 6 C -2.533824 -1.571119 2.296345 0
M  V30 7 C -2.716700 -2.542325 1.307603 0
M  V30 8 C -1.825179 -2.543896 0.239663 0
M  V30 9 C -0.798797 -1.607279 0.176822 0
M  V30 10 C 0.093631 -1.702981 -1.009189 0
M  V30 11 N 1.243751 -0.870483 -0.844192 0
M  V30 12 C 1.838522 -0.445008 -2.116855 0
M  V30 13 C 2.294623 0.996002 -1.866801 0
M  V30 14 C 2.258193 1.071743 -0.365796 0
M  V30 15 C 2.936221 1.474977 0.700904 0
M  V30 16 C 2.422471 1.307008 2.093382 0 CFG=2
M  V30 17 O 3.483333 1.190269 2.991405 0
M  V30 18 C 0.906688 0.407206 -0.264462 0 CFG=2
M  V30 19 O -3.831997 -3.298592 1.700963 0
M  V30 20 C -4.602385 -2.524801 2.618038 0
M  V30 21 O -3.550807 -1.784179 3.247472 0
M  V30 22 H 2.944404 -0.900512 1.390873 0
M  V30 23 H 1.035526 0.115121 3.157756 0
M  V30 24 H 0.000553 1.358136 1.371916 0
M  V30 25 H -1.418211 0.109139 3.051312 0
M  V30 26 H -2.035999 -3.321910 -0.475496 0
M  V30 27 H -0.509367 -1.472729 -1.928253 0
M  V30 28 H 0.413604 -2.775819 -1.137956 0
M  V30 29 H 1.121326 -0.497492 -2.950169 0
M  V30 30 H 2.743882 -1.021306 -2.352844 0
M  V30 31 H 1.474521 1.655687 -2.203492 0
M  V30 32 H 3.266308 1.225207 -2.298222 0
M  V30 33 H 3.878084 1.923129 0.391173 0
M  V30 34 H 1.797874 2.193776 2.332457 0
M  V30 35 H 3.542688 1.979874 3.599117 0
M  V30 36 H 0.151216 0.893120 -0.912329 0
M  V30 37 H -5.259069 -1.782489 2.091641 0
M  V30 38 H -5.184717 -3.126568 3.321406 0
M  V30 END ATOM
M  V30 BEGIN BOND
M  V30 1 1 1 2
M  V30 2 1 2 3
M  V30 3 1 3 4
M  V30 4 2 4 5
M  V30 5 1 5 6
M  V30 6 2 6 7
M  V30 7 1 7 8
M  V30 8 2 8 9
M  V30 9 1 9 10
M  V30 10 1 10 11
M  V30 11 1 11 12
M  V30 12 1 12 13
M  V30 13 1 13 14
M  V30 14 2 14 15
M  V30 15 1 15 16
M  V30 16 1 16 17
M  V30 17 1 14 18
M  V30 18 1 7 19
M  V30 19 1 19 20
M  V30 20 1 20 21
M  V30 21 1 16 2
M  V30 22 1 18 3
M  V30 23 1 9 4
M  V30 24 1 18 11
M  V30 25 1 21 6
M  V30 26 1 1 22
M  V30 27 1 2 23 CFG=1
M  V30 28 1 3 24 CFG=1
M  V30 29 1 5 25
M  V30 30 1 8 26
M  V30 31 1 10 27
M  V30 32 1 10 28
M  V30 33 1 12 29
M  V30 34 1 12 30
M  V30 35 1 13 31
M  V30 36 1 13 32
M  V30 37 1 15 33
M  V30 38 1 16 34 CFG=1
M  V30 39 1 17 35
M  V30 40 1 18 36 CFG=3
M  V30 41 1 20 37
M  V30 42 1 20 38
M  V30 END BOND
M  V30 END CTAB
M  END
>  <Dataset>  (188) 
ChEMBL_Kinases

>  <Ligand_Instance>  (188) 
nan

>  <PDB_ID>  (188) 
nan

>  <Standardized_SMILES>  (188) 
O[C@@H]1[C@@H]2c3cc4c(cc3CN3CCC(=C[C@@H]1O)[C@H]23)OCO4

>  <Name>  (188) 
nan

>  <Pocket>  (188) 
nan

>  <ATP_Site>  (188) 
nan

>  <Peripheral>  (188) 
nan

>  <Num_H_Atoms_ProtBoundConf>  (188) 
nan

>  <Num_Resolved_Atoms>  (188) 
nan

>  <Num_Not_Resolved_Atoms>  (188) 
nan

$$$$
CHEMBL1592698
     RDKit          3D

  0  0  0  0  0  0  0  0  0  0999 V3000
M  V30 BEGIN CTAB
M  V30 COUNTS 47 51 0 0 0
M  V30 BEGIN ATOM
M  V30 1 C -2.051379 -6.466855 0.917495 0
M  V30 2 N -0.734213 -6.072463 1.427243 0
M  V30 3 C 0.184237 -6.724091 2.179168 0
M  V30 4 C 1.268971 -5.870974 2.372862 0
M  V30 5 C 0.949039 -4.703396 1.708419 0
M  V30 6 C 1.716885 -3.540907 1.606944 0
M  V30 7 C 1.213741 -2.472592 0.891174 0
M  V30 8 C 1.978423 -1.236116 0.756814 0
M  V30 9 C 3.349362 -1.396074 0.737033 0
M  V30 10 C 4.118357 -0.248129 0.610841 0
M  V30 11 C 3.540300 0.999479 0.509471 0
M  V30 12 N 4.316356 2.106536 0.386694 0
M  V30 13 C 3.682044 3.305396 0.291072 0
M  V30 14 N 2.364420 3.462730 0.309763 0
M  V30 15 C 1.553369 2.400847 0.429158 0
M  V30 16 N 0.124706 2.557561 0.451408 0
M  V30 17 C -0.382328 3.914088 0.336777 0
M  V30 18 C -1.858520 3.865749 0.380396 0
M  V30 19 C -2.531741 3.958835 1.592695 0
M  V30 20 C -3.898811 3.902552 1.521258 0
M  V30 21 C -4.671843 3.764458 0.383073 0
M  V30 22 N -3.955485 3.678126 -0.775961 0
M  V30 23 C -2.621279 3.728551 -0.752567 0
M  V30 24 C 2.171126 1.175662 0.527701 0
M  V30 25 C 1.441010 0.029162 0.652805 0
M  V30 26 C -0.030572 -2.560769 0.288054 0
M  V30 27 C -0.749430 -3.731740 0.418412 0
M  V30 28 C -0.310714 -4.837675 1.117008 0
M  V30 29 H -2.292742 -7.458566 1.318845 0
M  V30 30 H -2.798033 -5.766209 1.390961 0
M  V30 31 H -2.090756 -6.421991 -0.175972 0
M  V30 32 H -0.003102 -7.735199 2.515492 0
M  V30 33 H 2.116571 -6.195977 2.948240 0
M  V30 34 H 2.684018 -3.464354 2.072411 0
M  V30 35 H 3.934271 -2.300585 0.806397 0
M  V30 36 H 5.215194 -0.281376 0.586180 0
M  V30 37 H 4.403689 4.116663 0.197420 0
M  V30 38 H -0.546237 1.783858 0.542058 0
M  V30 39 H -0.021943 4.497067 1.195331 0
M  V30 40 H -0.055279 4.372446 -0.620776 0
M  V30 41 H -2.016495 4.069069 2.535716 0
M  V30 42 H -4.414764 3.977243 2.483173 0
M  V30 43 H -5.752005 3.730249 0.432663 0
M  V30 44 H -2.157348 3.649949 -1.739369 0
M  V30 45 H 0.361993 0.037276 0.679460 0
M  V30 46 H -0.430991 -1.727677 -0.274471 0
M  V30 47 H -1.721987 -3.814106 -0.047373 0
M  V30 END ATOM
M  V30 BEGIN BOND
M  V30 1 1 1 2
M  V30 2 1 2 3
M  V30 3 2 3 4
M  V30 4 1 4 5
M  V30 5 2 5 6
M  V30 6 1 6 7
M  V30 7 1 7 8
M  V30 8 2 8 9
M  V30 9 1 9 10
M  V30 10 2 10 11
M  V30 11 1 11 12
M  V30 12 2 12 13
M  V30 13 1 13 14
M  V30 14 2 14 15
M  V30 15 1 15 16
M  V30 16 1 16 17
M  V30 17 1 17 18
M  V30 18 2 18 19
M  V30 19 1 19 20
M  V30 20 2 20 21
M  V30 21 1 21 22
M  V30 22 2 22 23
M  V30 23 1 15 24
M  V30 24 2 24 25
M  V30 25 2 7 26
M  V30 26 1 26 27
M  V30 27 2 27 28
M  V30 28 1 28 2
M  V30 29 1 28 5
M  V30 30 1 25 8
M  V30 31 1 24 11
M  V30 32 1 23 18
M  V30 33 1 1 29
M  V30 34 1 1 30
M  V30 35 1 1 31
M  V30 36 1 3 32
M  V30 37 1 4 33
M  V30 38 1 6 34
M  V30 39 1 9 35
M  V30 40 1 10 36
M  V30 41 1 13 37
M  V30 42 1 16 38
M  V30 43 1 17 39
M  V30 44 1 17 40
M  V30 45 1 19 41
M  V30 46 1 20 42
M  V30 47 1 21 43
M  V30 48 1 23 44
M  V30 49 1 25 45
M  V30 50 1 26 46
M  V30 51 1 27 47
M  V30 END BOND
M  V30 END CTAB
M  END
>  <Dataset>  (189) 
ChEMBL_Kinases

>  <Ligand_Instance>  (189) 
nan

>  <PDB_ID>  (189) 
nan

>  <Standardized_SMILES>  (189) 
Cn1ccc2cc(-c3ccc4ncnc(NCc5cccnc5)c4c3)ccc21

>  <Name>  (189) 
nan

>  <Pocket>  (189) 
nan

>  <ATP_Site>  (189) 
nan

>  <Peripheral>  (189) 
nan

>  <Num_H_Atoms_ProtBoundConf>  (189) 
nan

>  <Num_Resolved_Atoms>  (189) 
nan

>  <Num_Not_Resolved_Atoms>  (189) 
nan

$$$$
CHEMBL1592581
     RDKit          3D

  0  0  0  0  0  0  0  0  0  0999 V3000
M  V30 BEGIN CTAB
M  V30 COUNTS 44 48 0 0 0
M  V30 BEGIN ATOM
M  V30 1 Cl 3.163922 -1.993562 8.121419 0
M  V30 2 C 2.072830 -1.913931 6.756102 0
M  V30 3 C 0.745997 -2.263379 6.840473 0
M  V30 4 C -0.135499 -2.205556 5.758338 0
M  V30 5 C 0.377879 -1.770362 4.548090 0
M  V30 6 C 1.704950 -1.399690 4.380963 0
M  V30 7 C 2.229467 -0.943518 3.097624 0
M  V30 8 C 3.553512 -1.218804 2.822591 0
M  V30 9 C 4.045149 -0.786262 1.608526 0
M  V30 10 C 3.273283 -0.106770 0.689562 0
M  V30 11 N 3.771459 0.315447 -0.504204 0
M  V30 12 C 2.976699 0.978389 -1.371824 0
M  V30 13 N 1.696961 1.216253 -1.048338 0
M  V30 14 C 1.104791 0.849504 0.090315 0
M  V30 15 N -0.254009 1.139061 0.360543 0
M  V30 16 C -1.134027 1.837455 -0.529882 0
M  V30 17 C -1.373808 1.193319 -1.830044 0
M  V30 18 C -0.774046 1.331176 -3.064242 0
M  V30 19 C -1.193879 0.578561 -4.139099 0
M  V30 20 C -2.199791 -0.335209 -4.086712 0
M  V30 21 C -2.805931 -0.478971 -2.853380 0
M  V30 22 C -2.417492 0.261178 -1.729003 0
M  V30 23 O -3.797553 -1.461185 -3.042811 0
M  V30 24 C -3.535608 -2.171512 -4.246630 0
M  V30 25 O -2.807831 -1.200514 -4.978831 0
M  V30 26 C 1.945682 0.176731 0.949485 0
M  V30 27 C 1.474796 -0.262853 2.165282 0
M  V30 28 C 2.481079 -1.497065 5.516218 0
M  V30 29 H 0.331825 -2.606263 7.783875 0
M  V30 30 H -1.180289 -2.494718 5.880800 0
M  V30 31 H -0.259901 -1.706485 3.679826 0
M  V30 32 H 4.156145 -1.752095 3.545250 0
M  V30 33 H 5.085613 -1.002445 1.392599 0
M  V30 34 H 3.423833 1.295909 -2.314627 0
M  V30 35 H -0.706790 0.849048 1.253341 0
M  V30 36 H -0.592863 2.809638 -0.767143 0
M  V30 37 H -2.059809 2.125135 -0.035719 0
M  V30 38 H 0.010515 2.073175 -3.048603 0
M  V30 39 H -0.662559 0.758644 -5.060860 0
M  V30 40 H -3.002448 0.025180 -0.825243 0
M  V30 41 H -4.438159 -2.531075 -4.756699 0
M  V30 42 H -2.886974 -3.066445 -4.029500 0
M  V30 43 H 0.457819 -0.107141 2.492275 0
M  V30 44 H 3.532948 -1.208816 5.407485 0
M  V30 END ATOM
M  V30 BEGIN BOND
M  V30 1 1 1 2
M  V30 2 2 2 3
M  V30 3 1 3 4
M  V30 4 2 4 5
M  V30 5 1 5 6
M  V30 6 1 6 7
M  V30 7 2 7 8
M  V30 8 1 8 9
M  V30 9 2 9 10
M  V30 10 1 10 11
M  V30 11 2 11 12
M  V30 12 1 12 13
M  V30 13 2 13 14
M  V30 14 1 14 15
M  V30 15 1 15 16
M  V30 16 1 16 17
M  V30 17 2 17 18
M  V30 18 1 18 19
M  V30 19 2 19 20
M  V30 20 1 20 21
M  V30 21 2 21 22
M  V30 22 1 21 23
M  V30 23 1 23 24
M  V30 24 1 24 25
M  V30 25 1 14 26
M  V30 26 2 26 27
M  V30 27 2 6 28
M  V30 28 1 28 2
M  V30 29 1 27 7
M  V30 30 1 26 10
M  V30 31 1 22 17
M  V30 32 1 25 20
M  V30 33 1 3 29
M  V30 34 1 4 30
M  V30 35 1 5 31
M  V30 36 1 8 32
M  V30 37 1 9 33
M  V30 38 1 12 34
M  V30 39 1 15 35
M  V30 40 1 16 36
M  V30 41 1 16 37
M  V30 42 1 18 38
M  V30 43 1 19 39
M  V30 44 1 22 40
M  V30 45 1 24 41
M  V30 46 1 24 42
M  V30 47 1 27 43
M  V30 48 1 28 44
M  V30 END BOND
M  V30 END CTAB
M  END
>  <Dataset>  (190) 
ChEMBL_Kinases

>  <Ligand_Instance>  (190) 
nan

>  <PDB_ID>  (190) 
nan

>  <Standardized_SMILES>  (190) 
Clc1cccc(-c2ccc3ncnc(NCc4ccc5c(c4)OCO5)c3c2)c1

>  <Name>  (190) 
nan

>  <Pocket>  (190) 
nan

>  <ATP_Site>  (190) 
nan

>  <Peripheral>  (190) 
nan

>  <Num_H_Atoms_ProtBoundConf>  (190) 
nan

>  <Num_Resolved_Atoms>  (190) 
nan

>  <Num_Not_Resolved_Atoms>  (190) 
nan

$$$$
CHEMBL1592556
     RDKit          3D

  0  0  0  0  0  0  0  0  0  0999 V3000
M  V30 BEGIN CTAB
M  V30 COUNTS 52 56 0 0 0
M  V30 BEGIN ATOM
M  V30 1 C 0.180921 0.379906 3.271095 0
M  V30 2 O 1.285772 0.461871 2.430916 0
M  V30 3 C 2.574334 0.078990 2.709328 0
M  V30 4 C 3.040655 -0.468522 3.889219 0
M  V30 5 C 4.343765 -0.830508 4.116356 0
M  V30 6 C 5.279291 -0.647073 3.114775 0
M  V30 7 C 4.813072 -0.100796 1.936545 0
M  V30 8 C 3.483680 0.272304 1.693020 0
M  V30 9 C 3.287041 0.799452 0.336981 0
M  V30 10 C 2.787369 -0.184289 -0.675832 0
M  V30 11 N 1.532737 -0.743811 -0.294572 0
M  V30 12 C 0.329346 -0.197350 -0.569209 0
M  V30 13 O 0.308055 0.889881 -1.161677 0
M  V30 14 C -0.853578 -0.803770 -0.213753 0
M  V30 15 C -2.173100 -0.249053 -0.489640 0
M  V30 16 C -2.703185 0.971926 -0.134695 0
M  V30 17 N -3.963013 1.036746 -0.603680 0
M  V30 18 C -4.873620 2.160779 -0.439312 0
M  V30 19 C -4.277356 -0.104957 -1.255961 0
M  V30 20 C -5.390525 -0.602012 -1.928907 0
M  V30 21 C -5.421597 -1.854168 -2.523367 0
M  V30 22 C -4.290331 -2.675016 -2.455596 0
M  V30 23 C -3.203265 -2.165841 -1.787032 0
M  V30 24 C -3.147955 -0.928146 -1.189624 0
M  V30 25 N -0.786479 -1.988772 0.432282 0
M  V30 26 C 0.370594 -2.582762 0.734020 0
M  V30 27 C 0.392606 -3.788174 1.389998 0
M  V30 28 N 1.587041 -4.336936 1.664114 0
M  V30 29 C 2.761288 -3.733085 1.311048 0
M  V30 30 N 2.719744 -2.543729 0.664050 0
M  V30 31 C 1.540732 -1.943348 0.361298 0
M  V30 32 H 0.372492 -0.129375 4.252464 0
M  V30 33 H -0.660262 -0.099670 2.728175 0
M  V30 34 H -0.153096 1.425070 3.546109 0
M  V30 35 H 2.293061 -0.612814 4.683625 0
M  V30 36 H 4.670238 -1.256867 5.053723 0
M  V30 37 H 6.312378 -0.924201 3.269244 0
M  V30 38 H 5.617356 0.014382 1.189197 0
M  V30 39 H 4.176128 1.368433 -0.029240 0
M  V30 40 H 2.492705 1.609937 0.402899 0
M  V30 41 H 3.578827 -0.983147 -0.788495 0
M  V30 42 H 2.737045 0.347660 -1.659280 0
M  V30 43 H -2.133673 1.699443 0.427503 0
M  V30 44 H -5.513995 1.899619 0.455047 0
M  V30 45 H -4.324891 3.086447 -0.163460 0
M  V30 46 H -5.540974 2.295722 -1.289958 0
M  V30 47 H -6.268471 0.024304 -1.986959 0
M  V30 48 H -6.339789 -2.179741 -3.039834 0
M  V30 49 H -4.303265 -3.651437 -2.914260 0
M  V30 50 H -2.353927 -2.835070 -1.758297 0
M  V30 51 H -0.497151 -4.317942 1.696337 0
M  V30 52 H 3.669567 -4.257037 1.576960 0
M  V30 END ATOM
M  V30 BEGIN BOND
M  V30 1 1 1 2
M  V30 2 1 2 3
M  V30 3 2 3 4
M  V30 4 1 4 5
M  V30 5 2 5 6
M  V30 6 1 6 7
M  V30 7 2 7 8
M  V30 8 1 8 9
M  V30 9 1 9 10
M  V30 10 1 10 11
M  V30 11 1 11 12
M  V30 12 2 12 13
M  V30 13 1 12 14
M  V30 14 1 14 15
M  V30 15 2 15 16
M  V30 16 1 16 17
M  V30 17 1 17 18
M  V30 18 1 17 19
M  V30 19 2 19 20
M  V30 20 1 20 21
M  V30 21 2 21 22
M  V30 22 1 22 23
M  V30 23 2 23 24
M  V30 24 2 14 25
M  V30 25 1 25 26
M  V30 26 2 26 27
M  V30 27 1 27 28
M  V30 28 2 28 29
M  V30 29 1 29 30
M  V30 30 2 30 31
M  V30 31 1 8 3
M  V30 32 1 31 11
M  V30 33 1 24 15
M  V30 34 1 31 26
M  V30 35 1 24 19
M  V30 36 1 1 32
M  V30 37 1 1 33
M  V30 38 1 1 34
M  V30 39 1 4 35
M  V30 40 1 5 36
M  V30 41 1 6 37
M  V30 42 1 7 38
M  V30 43 1 9 39
M  V30 44 1 9 40
M  V30 45 1 10 41
M  V30 46 1 10 42
M  V30 47 1 16 43
M  V30 48 1 18 44
M  V30 49 1 18 45
M  V30 50 1 18 46
M  V30 51 1 20 47
M  V30 52 1 21 48
M  V30 53 1 22 49
M  V30 54 1 23 50
M  V30 55 1 27 51
M  V30 56 1 29 52
M  V30 END BOND
M  V30 END CTAB
M  END
>  <Dataset>  (191) 
ChEMBL_Kinases

>  <Ligand_Instance>  (191) 
nan

>  <PDB_ID>  (191) 
nan

>  <Standardized_SMILES>  (191) 
COc1ccccc1CCn1c(=O)c(-c2cn(C)c3ccccc23)nc2cncnc21

>  <Name>  (191) 
nan

>  <Pocket>  (191) 
nan

>  <ATP_Site>  (191) 
nan

>  <Peripheral>  (191) 
nan

>  <Num_H_Atoms_ProtBoundConf>  (191) 
nan

>  <Num_Resolved_Atoms>  (191) 
nan

>  <Num_Not_Resolved_Atoms>  (191) 
nan

$$$$
CHEMBL1592507
     RDKit          3D

  0  0  0  0  0  0  0  0  0  0999 V3000
M  V30 BEGIN CTAB
M  V30 COUNTS 42 43 0 0 0
M  V30 BEGIN ATOM
M  V30 1 C -1.313609 -2.645543 3.894427 0
M  V30 2 O -1.785611 -3.472360 2.862256 0
M  V30 3 N -1.098905 -3.785324 1.718125 0
M  V30 4 C -0.898941 -2.938382 0.742470 0
M  V30 5 C -1.513576 -1.639179 1.068552 0
M  V30 6 C -0.140775 -3.406338 -0.440554 0
M  V30 7 C 1.135300 -2.590387 -0.667203 0
M  V30 8 N 0.782149 -1.230237 -0.888050 0
M  V30 9 C 0.084910 -1.044086 -2.142863 0
M  V30 10 C -0.101033 0.406317 -2.492820 0
M  V30 11 C -0.557097 1.263663 -1.341546 0
M  V30 12 C 0.415191 1.138511 -0.227712 0
M  V30 13 N 0.719302 2.149796 0.608000 0
M  V30 14 C 1.603555 2.037531 1.617226 0
M  V30 15 C 1.926396 3.174335 2.533880 0
M  V30 16 C 2.202773 0.794183 1.758184 0
M  V30 17 C 3.200579 0.599690 2.866700 0
M  V30 18 C 1.936268 -0.284172 0.936632 0
M  V30 19 C 1.019394 -0.089800 -0.073602 0
M  V30 20 H -0.254240 -2.357262 3.760908 0
M  V30 21 H -1.969893 -1.724787 3.910827 0
M  V30 22 H -1.477416 -3.099054 4.904586 0
M  V30 23 H -1.691397 -1.097109 0.123304 0
M  V30 24 H -0.944479 -1.055304 1.823533 0
M  V30 25 H -2.529879 -1.764846 1.543111 0
M  V30 26 H -0.769920 -3.417936 -1.351373 0
M  V30 27 H 0.184367 -4.452633 -0.292091 0
M  V30 28 H 1.738320 -2.824770 0.204741 0
M  V30 29 H 1.575705 -3.022545 -1.612948 0
M  V30 30 H -0.931886 -1.504555 -2.129510 0
M  V30 31 H 0.722708 -1.496810 -2.937319 0
M  V30 32 H -0.916020 0.453776 -3.263321 0
M  V30 33 H 0.784418 0.868763 -2.971491 0
M  V30 34 H -1.570816 1.008999 -1.012257 0
M  V30 35 H -0.530263 2.315292 -1.728523 0
M  V30 36 H 2.024358 2.847124 3.601032 0
M  V30 37 H 2.871617 3.674633 2.269519 0
M  V30 38 H 1.139794 3.929894 2.503461 0
M  V30 39 H 2.699399 0.135551 3.735369 0
M  V30 40 H 3.646049 1.586692 3.075662 0
M  V30 41 H 4.013138 -0.024380 2.439328 0
M  V30 42 H 2.434956 -1.209498 1.103061 0
M  V30 END ATOM
M  V30 BEGIN BOND
M  V30 1 1 1 2
M  V30 2 1 2 3
M  V30 3 2 3 4
M  V30 4 1 4 5
M  V30 5 1 4 6
M  V30 6 1 6 7
M  V30 7 1 7 8
M  V30 8 1 8 9
M  V30 9 1 9 10
M  V30 10 1 10 11
M  V30 11 1 11 12
M  V30 12 2 12 13
M  V30 13 1 13 14
M  V30 14 1 14 15
M  V30 15 2 14 16
M  V30 16 1 16 17
M  V30 17 1 16 18
M  V30 18 2 18 19
M  V30 19 1 19 8
M  V30 20 1 19 12
M  V30 21 1 1 20
M  V30 22 1 1 21
M  V30 23 1 1 22
M  V30 24 1 5 23
M  V30 25 1 5 24
M  V30 26 1 5 25
M  V30 27 1 6 26
M  V30 28 1 6 27
M  V30 29 1 7 28
M  V30 30 1 7 29
M  V30 31 1 9 30
M  V30 32 1 9 31
M  V30 33 1 10 32
M  V30 34 1 10 33
M  V30 35 1 11 34
M  V30 36 1 11 35
M  V30 37 1 15 36
M  V30 38 1 15 37
M  V30 39 1 15 38
M  V30 40 1 17 39
M  V30 41 1 17 40
M  V30 42 1 17 41
M  V30 43 1 18 42
M  V30 END BOND
M  V30 END CTAB
M  END
>  <Dataset>  (192) 
ChEMBL_Kinases

>  <Ligand_Instance>  (192) 
nan

>  <PDB_ID>  (192) 
nan

>  <Standardized_SMILES>  (192) 
CO/N=C(\C)CCN1CCCc2nc(C)c(C)cc21

>  <Name>  (192) 
nan

>  <Pocket>  (192) 
nan

>  <ATP_Site>  (192) 
nan

>  <Peripheral>  (192) 
nan

>  <Num_H_Atoms_ProtBoundConf>  (192) 
nan

>  <Num_Resolved_Atoms>  (192) 
nan

>  <Num_Not_Resolved_Atoms>  (192) 
nan

$$$$
CHEMBL1592500
     RDKit          3D

  0  0  0  0  0  0  0  0  0  0999 V3000
M  V30 BEGIN CTAB
M  V30 COUNTS 57 60 0 0 0
M  V30 BEGIN ATOM
M  V30 1 C 5.947877 -6.410449 -1.777357 0
M  V30 2 C 5.461634 -5.297247 -0.926331 0
M  V30 3 C 4.455388 -5.514635 -0.008035 0
M  V30 4 C 4.061282 -4.420963 0.745740 0
M  V30 5 C 4.609467 -3.155898 0.628823 0
M  V30 6 S 4.003829 -1.859824 1.658599 0
M  V30 7 O 3.618176 -2.379834 3.019853 0
M  V30 8 O 5.127688 -0.881157 1.865161 0
M  V30 9 O 2.730783 -1.058371 0.920504 0
M  V30 10 C 1.624437 -0.912682 1.751209 0
M  V30 11 C 0.548650 -0.177452 0.978817 0 CFG=2
M  V30 12 C -0.690854 0.023285 1.804882 0
M  V30 13 N -1.837793 0.080450 0.963372 0
M  V30 14 C -2.206406 1.342065 0.462803 0 CFG=2
M  V30 15 C -3.414190 1.918375 1.148339 0
M  V30 16 C -3.491667 3.249817 1.573661 0
M  V30 17 C -4.598715 3.751412 2.194202 0
M  V30 18 C -5.693756 2.953809 2.426884 0
M  V30 19 Br -7.248398 3.655778 3.297693 0
M  V30 20 C -5.667231 1.633013 2.026473 0
M  V30 21 C -4.527788 1.167177 1.402631 0
M  V30 22 C -2.298022 1.526626 -1.008094 0 CFG=2
M  V30 23 C -3.328230 2.638271 -1.259347 0
M  V30 24 C -2.622719 0.318963 -1.820277 0
M  V30 25 C -2.865702 -0.933676 -1.050764 0
M  V30 26 C -2.108391 -1.088427 0.212530 0 CFG=1
M  V30 27 C -0.833504 -1.823055 -0.114533 0
M  V30 28 O -0.921987 -3.089852 -0.277238 0
M  V30 29 O 0.194616 -0.914046 -0.167292 0
M  V30 30 C 5.618065 -2.960473 -0.299126 0
M  V30 31 C 6.022153 -4.046814 -1.060280 0
M  V30 32 H 7.040158 -6.537335 -1.739231 0
M  V30 33 H 5.435550 -7.354975 -1.481213 0
M  V30 34 H 5.652543 -6.268916 -2.852565 0
M  V30 35 H 4.012369 -6.489837 0.102096 0
M  V30 36 H 3.270244 -4.581198 1.471239 0
M  V30 37 H 1.284245 -1.935617 2.006724 0
M  V30 38 H 1.846243 -0.409358 2.711792 0
M  V30 39 H 0.904806 0.827256 0.669838 0
M  V30 40 H -0.658091 0.980258 2.377515 0
M  V30 41 H -0.767015 -0.837527 2.509140 0
M  V30 42 H -1.382406 2.040196 0.808345 0
M  V30 43 H -2.622048 3.885712 1.389643 0
M  V30 44 H -4.641025 4.781684 2.515697 0
M  V30 45 H -6.525737 1.013077 2.210507 0
M  V30 46 H -4.580064 0.126447 1.118492 0
M  V30 47 H -1.351500 1.965451 -1.443398 0
M  V30 48 H -3.531449 2.714586 -2.357107 0
M  V30 49 H -4.279652 2.418392 -0.756357 0
M  V30 50 H -2.866416 3.604238 -0.981407 0
M  V30 51 H -1.863581 0.118159 -2.627386 0
M  V30 52 H -3.559269 0.525698 -2.415127 0
M  V30 53 H -2.619266 -1.804862 -1.726955 0
M  V30 54 H -3.969280 -1.065821 -0.871795 0
M  V30 55 H -2.678182 -1.774718 0.874832 0
M  V30 56 H 6.033065 -1.963101 -0.374340 0
M  V30 57 H 6.809082 -3.825825 -1.761390 0
M  V30 END ATOM
M  V30 BEGIN BOND
M  V30 1 1 1 2
M  V30 2 2 2 3
M  V30 3 1 3 4
M  V30 4 2 4 5
M  V30 5 1 5 6
M  V30 6 2 6 7
M  V30 7 2 6 8
M  V30 8 1 6 9
M  V30 9 1 9 10
M  V30 10 1 10 11
M  V30 11 1 11 12
M  V30 12 1 12 13
M  V30 13 1 13 14
M  V30 14 1 14 15
M  V30 15 2 15 16
M  V30 16 1 16 17
M  V30 17 2 17 18
M  V30 18 1 18 19
M  V30 19 1 18 20
M  V30 20 2 20 21
M  V30 21 1 14 22
M  V30 22 1 22 23
M  V30 23 1 22 24
M  V30 24 1 24 25
M  V30 25 1 25 26
M  V30 26 1 26 27
M  V30 27 2 27 28
M  V30 28 1 27 29
M  V30 29 1 5 30
M  V30 30 2 30 31
M  V30 31 1 31 2
M  V30 32 1 29 11
M  V30 33 1 26 13
M  V30 34 1 21 15
M  V30 35 1 1 32
M  V30 36 1 1 33
M  V30 37 1 1 34
M  V30 38 1 3 35
M  V30 39 1 4 36
M  V30 40 1 10 37
M  V30 41 1 10 38
M  V30 42 1 11 39 CFG=3
M  V30 43 1 12 40
M  V30 44 1 12 41
M  V30 45 1 14 42 CFG=1
M  V30 46 1 16 43
M  V30 47 1 17 44
M  V30 48 1 20 45
M  V30 49 1 21 46
M  V30 50 1 22 47 CFG=3
M  V30 51 1 23 48
M  V30 52 1 23 49
M  V30 53 1 23 50
M  V30 54 1 24 51
M  V30 55 1 24 52
M  V30 56 1 25 53
M  V30 57 1 25 54
M  V30 58 1 26 55 CFG=1
M  V30 59 1 30 56
M  V30 60 1 31 57
M  V30 END BOND
M  V30 END CTAB
M  END
>  <Dataset>  (193) 
ChEMBL_Kinases

>  <Ligand_Instance>  (193) 
nan

>  <PDB_ID>  (193) 
nan

>  <Standardized_SMILES>  (193) 
Cc1ccc(S(=O)(=O)OC[C@@H]2CN3[C@H](c4ccc(Br)cc4)[C@H](C)CC[C@H]3C(=O)O2)cc1

>  <Name>  (193) 
nan

>  <Pocket>  (193) 
nan

>  <ATP_Site>  (193) 
nan

>  <Peripheral>  (193) 
nan

>  <Num_H_Atoms_ProtBoundConf>  (193) 
nan

>  <Num_Resolved_Atoms>  (193) 
nan

>  <Num_Not_Resolved_Atoms>  (193) 
nan

$$$$
CHEMBL1592464
     RDKit          3D

  0  0  0  0  0  0  0  0  0  0999 V3000
M  V30 BEGIN CTAB
M  V30 COUNTS 46 49 0 0 0
M  V30 BEGIN ATOM
M  V30 1 C -0.085841 -5.132655 1.223450 0
M  V30 2 O 0.297862 -3.810545 1.582299 0
M  V30 3 C 1.370057 -3.177384 0.918089 0
M  V30 4 C 2.142513 -3.687407 -0.088896 0
M  V30 5 C 3.161061 -2.940964 -0.640591 0
M  V30 6 C 3.429906 -1.664111 -0.196059 0
M  V30 7 N 4.306951 -0.684170 -0.465597 0
M  V30 8 C 4.109134 0.374358 0.310075 0
M  V30 9 C 3.032517 0.144224 1.183226 0
M  V30 10 C 2.579252 1.182889 2.118876 0
M  V30 11 C 1.473581 2.044597 1.592950 0
M  V30 12 N 0.279259 1.315297 1.268619 0
M  V30 13 C -0.737116 2.223556 0.766912 0
M  V30 14 N -0.600230 3.551935 0.618974 0
M  V30 15 C -1.571194 4.341674 0.151411 0
M  V30 16 N -2.775695 3.868222 -0.212809 0
M  V30 17 C -3.031783 2.561889 -0.111159 0
M  V30 18 C -2.009762 1.784421 0.373099 0
M  V30 19 C -2.317262 0.339640 0.476601 0
M  V30 20 C -2.116821 -0.624120 -0.521375 0
M  V30 21 C -2.472074 -1.905669 -0.217152 0
M  V30 22 C -3.002382 -2.306550 0.977752 0
M  V30 23 C -3.209445 -1.361955 1.983792 0
M  V30 24 C -2.851689 -0.072892 1.676797 0
M  V30 25 Cl -3.134886 1.074537 2.987648 0
M  V30 26 C 2.648705 -1.128866 0.831384 0
M  V30 27 C 1.633959 -1.887017 1.374596 0
M  V30 28 H 0.809799 -5.805554 1.143035 0
M  V30 29 H -0.754622 -5.584773 1.952061 0
M  V30 30 H -0.555649 -5.148862 0.208567 0
M  V30 31 H 1.889060 -4.690846 -0.398648 0
M  V30 32 H 3.758941 -3.344151 -1.423977 0
M  V30 33 H 5.043454 -0.773147 -1.200809 0
M  V30 34 H 4.720543 1.288183 0.252146 0
M  V30 35 H 3.434289 1.862791 2.364486 0
M  V30 36 H 2.250007 0.703054 3.078980 0
M  V30 37 H 1.268757 2.809925 2.410730 0
M  V30 38 H 1.813376 2.684449 0.740675 0
M  V30 39 H -0.093338 0.352849 1.276479 0
M  V30 40 H -1.392035 5.407454 0.057951 0
M  V30 41 H -3.981544 2.134012 -0.390075 0
M  V30 42 H -1.697181 -0.240533 -1.433282 0
M  V30 43 H -2.309920 -2.648549 -1.005810 0
M  V30 44 H -3.268147 -3.338298 1.169052 0
M  V30 45 H -3.628222 -1.673810 2.928535 0
M  V30 46 H 1.032150 -1.463597 2.194894 0
M  V30 END ATOM
M  V30 BEGIN BOND
M  V30 1 1 1 2
M  V30 2 1 2 3
M  V30 3 2 3 4
M  V30 4 1 4 5
M  V30 5 2 5 6
M  V30 6 1 6 7
M  V30 7 1 7 8
M  V30 8 2 8 9
M  V30 9 1 9 10
M  V30 10 1 10 11
M  V30 11 1 11 12
M  V30 12 1 12 13
M  V30 13 2 13 14
M  V30 14 1 14 15
M  V30 15 2 15 16
M  V30 16 1 16 17
M  V30 17 2 17 18
M  V30 18 1 18 19
M  V30 19 2 19 20
M  V30 20 1 20 21
M  V30 21 2 21 22
M  V30 22 1 22 23
M  V30 23 2 23 24
M  V30 24 1 24 25
M  V30 25 1 9 26
M  V30 26 2 26 27
M  V30 27 1 27 3
M  V30 28 1 26 6
M  V30 29 1 18 13
M  V30 30 1 24 19
M  V30 31 1 1 28
M  V30 32 1 1 29
M  V30 33 1 1 30
M  V30 34 1 4 31
M  V30 35 1 5 32
M  V30 36 1 7 33
M  V30 37 1 8 34
M  V30 38 1 10 35
M  V30 39 1 10 36
M  V30 40 1 11 37
M  V30 41 1 11 38
M  V30 42 1 12 39
M  V30 43 1 15 40
M  V30 44 1 17 41
M  V30 45 1 20 42
M  V30 46 1 21 43
M  V30 47 1 22 44
M  V30 48 1 23 45
M  V30 49 1 27 46
M  V30 END BOND
M  V30 END CTAB
M  END
>  <Dataset>  (194) 
ChEMBL_Kinases

>  <Ligand_Instance>  (194) 
nan

>  <PDB_ID>  (194) 
nan

>  <Standardized_SMILES>  (194) 
COc1ccc2[nH]cc(CCNc3ncncc3-c3ccccc3Cl)c2c1

>  <Name>  (194) 
nan

>  <Pocket>  (194) 
nan

>  <ATP_Site>  (194) 
nan

>  <Peripheral>  (194) 
nan

>  <Num_H_Atoms_ProtBoundConf>  (194) 
nan

>  <Num_Resolved_Atoms>  (194) 
nan

>  <Num_Not_Resolved_Atoms>  (194) 
nan

$$$$
CHEMBL1592444
     RDKit          3D

  0  0  0  0  0  0  0  0  0  0999 V3000
M  V30 BEGIN CTAB
M  V30 COUNTS 42 44 0 0 0
M  V30 BEGIN ATOM
M  V30 1 C -2.011666 -2.508776 1.789209 0
M  V30 2 C -2.255348 -1.797017 0.496833 0
M  V30 3 C -3.202586 -0.626185 0.626470 0
M  V30 4 C -2.748770 0.417389 -0.367164 0
M  V30 5 C -1.679557 -0.279980 -1.170383 0
M  V30 6 C -0.521972 0.643303 -1.497103 0
M  V30 7 C -1.062741 2.070416 -1.533851 0
M  V30 8 C -0.073095 0.320654 -2.872540 0
M  V30 9 C 0.424859 0.542625 -0.387516 0
M  V30 10 C -0.340798 -0.182962 0.721703 0
M  V30 11 C -1.042929 -1.195806 -0.129705 0
M  V30 12 C -0.083461 -2.168005 -0.710189 0
M  V30 13 C 1.341254 -1.766650 -0.743109 0
M  V30 14 C 1.645420 -0.318373 -0.575798 0 CFG=1
M  V30 15 C 2.610904 0.242294 -1.580940 0
M  V30 16 O 2.294870 -0.173368 0.680530 0
M  V30 17 H -1.356014 -1.971150 2.489897 0
M  V30 18 H -1.696468 -3.546996 1.576249 0
M  V30 19 H -3.002603 -2.597610 2.302867 0
M  V30 20 H -2.697896 -2.502966 -0.214419 0
M  V30 21 H -3.243760 -0.215024 1.657269 0
M  V30 22 H -4.240355 -0.921927 0.335882 0
M  V30 23 H -3.556531 0.713577 -1.075833 0
M  V30 24 H -2.411600 1.349401 0.108102 0
M  V30 25 H -2.059961 -0.823835 -2.038325 0
M  V30 26 H -2.138312 2.105119 -1.771781 0
M  V30 27 H -0.798503 2.621781 -0.597930 0
M  V30 28 H -0.561802 2.635819 -2.361161 0
M  V30 29 H 0.497300 1.135422 -3.386491 0
M  V30 30 H -1.007383 0.252030 -3.497631 0
M  V30 31 H 0.417484 -0.635641 -3.020733 0
M  V30 32 H 0.741911 1.507917 0.034905 0
M  V30 33 H 0.336759 -0.681072 1.433549 0
M  V30 34 H -0.993362 0.472955 1.289130 0
M  V30 35 H -0.236096 -3.127230 -0.135829 0
M  V30 36 H -0.478477 -2.449736 -1.727535 0
M  V30 37 H 1.900613 -2.405420 0.000976 0
M  V30 38 H 1.821861 -2.082193 -1.715451 0
M  V30 39 H 3.657783 0.364691 -1.184526 0
M  V30 40 H 2.307191 1.293502 -1.801878 0
M  V30 41 H 2.743142 -0.383720 -2.479547 0
M  V30 42 H 2.562072 -1.047873 1.052416 0
M  V30 END ATOM
M  V30 BEGIN BOND
M  V30 1 1 1 2
M  V30 2 1 2 3
M  V30 3 1 3 4
M  V30 4 1 4 5
M  V30 5 1 5 6
M  V30 6 1 6 7
M  V30 7 1 6 8
M  V30 8 1 6 9
M  V30 9 1 9 10
M  V30 10 1 10 11
M  V30 11 1 11 12
M  V30 12 1 12 13
M  V30 13 1 13 14
M  V30 14 1 14 15
M  V30 15 1 14 16 CFG=1
M  V30 16 1 11 2
M  V30 17 1 11 5
M  V30 18 1 14 9
M  V30 19 1 1 17
M  V30 20 1 1 18
M  V30 21 1 1 19
M  V30 22 1 2 20
M  V30 23 1 3 21
M  V30 24 1 3 22
M  V30 25 1 4 23
M  V30 26 1 4 24
M  V30 27 1 5 25
M  V30 28 1 7 26
M  V30 29 1 7 27
M  V30 30 1 7 28
M  V30 31 1 8 29
M  V30 32 1 8 30
M  V30 33 1 8 31
M  V30 34 1 9 32
M  V30 35 1 10 33
M  V30 36 1 10 34
M  V30 37 1 12 35
M  V30 38 1 12 36
M  V30 39 1 13 37
M  V30 40 1 13 38
M  V30 41 1 15 39
M  V30 42 1 15 40
M  V30 43 1 15 41
M  V30 44 1 16 42
M  V30 END BOND
M  V30 END CTAB
M  END
>  <Dataset>  (195) 
ChEMBL_Kinases

>  <Ligand_Instance>  (195) 
nan

>  <PDB_ID>  (195) 
nan

>  <Standardized_SMILES>  (195) 
CC1CCC2C(C)(C)C3CC12CC[C@]3(C)O

>  <Name>  (195) 
nan

>  <Pocket>  (195) 
nan

>  <ATP_Site>  (195) 
nan

>  <Peripheral>  (195) 
nan

>  <Num_H_Atoms_ProtBoundConf>  (195) 
nan

>  <Num_Resolved_Atoms>  (195) 
nan

>  <Num_Not_Resolved_Atoms>  (195) 
nan

$$$$
CHEMBL1590663
     RDKit          3D

  0  0  0  0  0  0  0  0  0  0999 V3000
M  V30 BEGIN CTAB
M  V30 COUNTS 49 52 0 0 0
M  V30 BEGIN ATOM
M  V30 1 C -1.615283 -7.398704 2.081285 0
M  V30 2 C -1.807956 -6.381109 3.017350 0
M  V30 3 C -1.652513 -5.056649 2.692301 0
M  V30 4 C -1.290618 -4.745365 1.379861 0
M  V30 5 C -1.137112 -3.326916 1.080338 0
M  V30 6 C -0.697947 -2.409389 2.022128 0
M  V30 7 C -0.573732 -1.077755 1.676516 0
M  V30 8 C -0.864999 -0.587792 0.424717 0
M  V30 9 N -0.757273 0.757984 0.019835 0
M  V30 10 C -1.091247 1.168037 -1.319006 0
M  V30 11 C -0.728332 2.567300 -1.640832 0
M  V30 12 C 0.530186 3.093791 -1.035725 0
M  V30 13 C 0.960857 2.390491 0.213492 0
M  V30 14 C 1.599404 3.435059 1.111140 0
M  V30 15 C 2.227848 2.747307 2.278890 0
M  V30 16 N 3.258672 1.884240 1.808229 0
M  V30 17 C 2.870188 0.885422 0.874752 0
M  V30 18 C 1.877087 1.276110 -0.150956 0
M  V30 19 C -0.316099 1.847951 0.865123 0
M  V30 20 C -1.297219 -1.525863 -0.482257 0
M  V30 21 C -1.440712 -2.865139 -0.196639 0
M  V30 22 C -1.090084 -5.727595 0.421019 0
M  V30 23 C -1.259241 -7.050542 0.798363 0
M  V30 24 H -1.747145 -8.434169 2.373674 0
M  V30 25 H -2.088055 -6.712865 4.014773 0
M  V30 26 H -1.806902 -4.281315 3.434520 0
M  V30 27 H -0.459466 -2.766461 3.023092 0
M  V30 28 H -0.229476 -0.383014 2.428804 0
M  V30 29 H -0.714711 0.470986 -2.096507 0
M  V30 30 H -2.215572 1.077230 -1.388502 0
M  V30 31 H -1.609709 3.251646 -1.482119 0
M  V30 32 H -0.572311 2.622223 -2.758067 0
M  V30 33 H 0.346618 4.174383 -0.818661 0
M  V30 34 H 1.405392 3.090610 -1.734840 0
M  V30 35 H 2.393485 3.937816 0.519775 0
M  V30 36 H 0.789154 4.144103 1.401850 0
M  V30 37 H 1.488514 2.290784 2.952318 0
M  V30 38 H 2.731020 3.546097 2.885857 0
M  V30 39 H 3.661739 1.408622 2.648407 0
M  V30 40 H 2.563867 -0.035864 1.432557 0
M  V30 41 H 3.805235 0.566931 0.326207 0
M  V30 42 H 1.262303 0.380046 -0.379807 0
M  V30 43 H 2.381148 1.533972 -1.128168 0
M  V30 44 H -1.087556 2.660854 0.750881 0
M  V30 45 H -0.154962 1.580960 1.910242 0
M  V30 46 H -1.568358 -1.291101 -1.521787 0
M  V30 47 H -1.783338 -3.605784 -0.918386 0
M  V30 48 H -0.807105 -5.433577 -0.594300 0
M  V30 49 H -1.094782 -7.801438 0.023862 0
M  V30 END ATOM
M  V30 BEGIN BOND
M  V30 1 2 1 2
M  V30 2 1 2 3
M  V30 3 2 3 4
M  V30 4 1 4 5
M  V30 5 2 5 6
M  V30 6 1 6 7
M  V30 7 2 7 8
M  V30 8 1 8 9
M  V30 9 1 9 10
M  V30 10 1 10 11
M  V30 11 1 11 12
M  V30 12 1 12 13
M  V30 13 1 13 14
M  V30 14 1 14 15
M  V30 15 1 15 16
M  V30 16 1 16 17
M  V30 17 1 17 18
M  V30 18 1 13 19
M  V30 19 1 8 20
M  V30 20 2 20 21
M  V30 21 1 4 22
M  V30 22 2 22 23
M  V30 23 1 23 1
M  V30 24 1 21 5
M  V30 25 1 19 9
M  V30 26 1 18 13
M  V30 27 1 1 24
M  V30 28 1 2 25
M  V30 29 1 3 26
M  V30 30 1 6 27
M  V30 31 1 7 28
M  V30 32 1 10 29
M  V30 33 1 10 30
M  V30 34 1 11 31
M  V30 35 1 11 32
M  V30 36 1 12 33
M  V30 37 1 12 34
M  V30 38 1 14 35
M  V30 39 1 14 36
M  V30 40 1 15 37
M  V30 41 1 15 38
M  V30 42 1 16 39
M  V30 43 1 17 40
M  V30 44 1 17 41
M  V30 45 1 18 42
M  V30 46 1 18 43
M  V30 47 1 19 44
M  V30 48 1 19 45
M  V30 49 1 20 46
M  V30 50 1 21 47
M  V30 51 1 22 48
M  V30 52 1 23 49
M  V30 END BOND
M  V30 END CTAB
M  END
>  <Dataset>  (196) 
ChEMBL_Kinases

>  <Ligand_Instance>  (196) 
nan

>  <PDB_ID>  (196) 
nan

>  <Standardized_SMILES>  (196) 
c1ccc(-c2ccc(N3CCCC4(CCNCC4)C3)cc2)cc1

>  <Name>  (196) 
nan

>  <Pocket>  (196) 
nan

>  <ATP_Site>  (196) 
nan

>  <Peripheral>  (196) 
nan

>  <Num_H_Atoms_ProtBoundConf>  (196) 
nan

>  <Num_Resolved_Atoms>  (196) 
nan

>  <Num_Not_Resolved_Atoms>  (196) 
nan

$$$$
CHEMBL1590818
     RDKit          3D

  0  0  0  0  0  0  0  0  0  0999 V3000
M  V30 BEGIN CTAB
M  V30 COUNTS 39 42 0 0 0
M  V30 BEGIN ATOM
M  V30 1 C 0.842746 1.113396 5.200005 0
M  V30 2 C 0.996454 0.194914 6.228560 0
M  V30 3 N 1.009388 -1.146905 6.023762 0
M  V30 4 C 0.872902 -1.685515 4.798429 0
M  V30 5 C 0.718115 -0.801724 3.753121 0
M  V30 6 C 0.562540 -1.286712 2.385499 0
M  V30 7 N 0.413666 -0.392680 1.389770 0
M  V30 8 C 0.262580 -0.720315 0.094020 0
M  V30 9 N 0.112479 0.285444 -0.885160 0
M  V30 10 C -1.025302 0.485901 -1.796070 0
M  V30 11 C -1.647223 1.801132 -1.420792 0
M  V30 12 N -0.811342 2.630608 -0.584153 0
M  V30 13 C 0.560385 2.649348 -0.993056 0
M  V30 14 C 1.179248 1.279538 -1.068044 0
M  V30 15 C 0.268995 -2.076687 -0.167460 0
M  V30 16 C 0.119168 -2.493102 -1.473982 0
M  V30 17 C 0.119296 -3.829990 -1.782036 0
M  V30 18 C 0.265773 -4.817511 -0.827138 0
M  V30 19 C 0.413952 -4.381989 0.470445 0
M  V30 20 C 0.417558 -3.042559 0.809219 0
M  V30 21 N 0.562849 -2.599557 2.084818 0
M  V30 22 C 0.704407 0.561746 3.956702 0
M  V30 23 H 0.839006 2.175638 5.414498 0
M  V30 24 H 1.115439 0.526655 7.265190 0
M  V30 25 H 0.886602 -2.755462 4.662570 0
M  V30 26 H -0.641388 0.468484 -2.827380 0
M  V30 27 H -1.795987 -0.305850 -1.674637 0
M  V30 28 H -2.619842 1.644338 -0.899728 0
M  V30 29 H -1.900271 2.388212 -2.348106 0
M  V30 30 H -0.940062 2.489524 0.436917 0
M  V30 31 H 0.593979 3.170842 -1.976371 0
M  V30 32 H 1.129046 3.199630 -0.214955 0
M  V30 33 H 1.596708 1.113440 -2.104023 0
M  V30 34 H 2.028347 1.123088 -0.393157 0
M  V30 35 H -0.000696 -1.779768 -2.277449 0
M  V30 36 H -0.001099 -4.125094 -2.823021 0
M  V30 37 H 0.263674 -5.866826 -1.086713 0
M  V30 38 H 0.533866 -5.101794 1.272538 0
M  V30 39 H 0.581005 1.267357 3.123480 0
M  V30 END ATOM
M  V30 BEGIN BOND
M  V30 1 2 1 2
M  V30 2 1 2 3
M  V30 3 2 3 4
M  V30 4 1 4 5
M  V30 5 1 5 6
M  V30 6 2 6 7
M  V30 7 1 7 8
M  V30 8 1 8 9
M  V30 9 1 9 10
M  V30 10 1 10 11
M  V30 11 1 11 12
M  V30 12 1 12 13
M  V30 13 1 13 14
M  V30 14 2 8 15
M  V30 15 1 15 16
M  V30 16 2 16 17
M  V30 17 1 17 18
M  V30 18 2 18 19
M  V30 19 1 19 20
M  V30 20 2 20 21
M  V30 21 2 5 22
M  V30 22 1 22 1
M  V30 23 1 21 6
M  V30 24 1 14 9
M  V30 25 1 20 15
M  V30 26 1 1 23
M  V30 27 1 2 24
M  V30 28 1 4 25
M  V30 29 1 10 26
M  V30 30 1 10 27
M  V30 31 1 11 28
M  V30 32 1 11 29
M  V30 33 1 12 30
M  V30 34 1 13 31
M  V30 35 1 13 32
M  V30 36 1 14 33
M  V30 37 1 14 34
M  V30 38 1 16 35
M  V30 39 1 17 36
M  V30 40 1 18 37
M  V30 41 1 19 38
M  V30 42 1 22 39
M  V30 END BOND
M  V30 END CTAB
M  END
>  <Dataset>  (197) 
ChEMBL_Kinases

>  <Ligand_Instance>  (197) 
nan

>  <PDB_ID>  (197) 
nan

>  <Standardized_SMILES>  (197) 
c1cncc(-c2nc(N3CCNCC3)c3ccccc3n2)c1

>  <Name>  (197) 
nan

>  <Pocket>  (197) 
nan

>  <ATP_Site>  (197) 
nan

>  <Peripheral>  (197) 
nan

>  <Num_H_Atoms_ProtBoundConf>  (197) 
nan

>  <Num_Resolved_Atoms>  (197) 
nan

>  <Num_Not_Resolved_Atoms>  (197) 
nan

$$$$
CHEMBL1590909
     RDKit          3D

  0  0  0  0  0  0  0  0  0  0999 V3000
M  V30 BEGIN CTAB
M  V30 COUNTS 49 53 0 0 0
M  V30 BEGIN ATOM
M  V30 1 C 2.689256 -1.720993 5.300360 0
M  V30 2 O 2.186641 -1.485412 4.004444 0
M  V30 3 C 2.944843 -1.665807 2.858473 0
M  V30 4 C 4.253272 -2.085308 2.794809 0
M  V30 5 C 4.839524 -2.205283 1.559209 0
M  V30 6 C 4.227072 -1.939153 0.349614 0
M  V30 7 N 4.570270 -1.977743 -0.942207 0
M  V30 8 C 3.523111 -1.598626 -1.663272 0
M  V30 9 C 2.432172 -1.291768 -0.842961 0
M  V30 10 C 1.070378 -0.825072 -1.271742 0
M  V30 11 C 0.971245 0.673959 -1.004024 0
M  V30 12 N -0.288001 1.238828 -1.373104 0
M  V30 13 C -1.470664 0.794815 -0.731682 0
M  V30 14 N -1.425861 -0.148966 0.225507 0
M  V30 15 C -2.508666 -0.610504 0.873691 0
M  V30 16 C -2.450089 -1.634172 1.909503 0
M  V30 17 C -2.206746 -3.006899 2.055960 0
M  V30 18 C -2.333107 -3.299839 3.421118 0
M  V30 19 O -2.627771 -2.193609 4.040707 0
M  V30 20 C -2.706752 -1.193566 3.198724 0
M  V30 21 N -3.746957 -0.126138 0.580674 0
M  V30 22 C -3.895968 0.835322 -0.377617 0
M  V30 23 C -5.137840 1.358144 -0.708701 0
M  V30 24 C -5.270280 2.327772 -1.677352 0
M  V30 25 C -4.112977 2.773857 -2.321982 0
M  V30 26 C -2.907184 2.222252 -1.955656 0
M  V30 27 C -2.739453 1.254661 -0.994863 0
M  V30 28 C 2.907985 -1.518228 0.449781 0
M  V30 29 C 2.274236 -1.382151 1.672955 0
M  V30 30 H 2.025382 -1.210517 6.044841 0
M  V30 31 H 2.672223 -2.818571 5.452729 0
M  V30 32 H 3.730495 -1.320415 5.447062 0
M  V30 33 H 4.732537 -2.292602 3.723107 0
M  V30 34 H 5.875420 -2.537176 1.502806 0
M  V30 35 H 5.509683 -2.261404 -1.297060 0
M  V30 36 H 3.442169 -1.512313 -2.742449 0
M  V30 37 H 0.276076 -1.410318 -0.817261 0
M  V30 38 H 1.037011 -0.945823 -2.373888 0
M  V30 39 H 1.031707 0.781018 0.121651 0
M  V30 40 H 1.845555 1.199233 -1.429979 0
M  V30 41 H -0.238116 1.949879 -2.102569 0
M  V30 42 H -1.984057 -3.502922 1.099229 0
M  V30 43 H -2.140361 -4.379131 3.525162 0
M  V30 44 H -2.953368 -0.267806 3.718002 0
M  V30 45 H -6.029700 0.997945 -0.195311 0
M  V30 46 H -6.228415 2.748235 -1.950209 0
M  V30 47 H -4.225930 3.530351 -3.075733 0
M  V30 48 H -2.080076 2.619795 -2.497308 0
M  V30 49 H 1.232978 -1.045280 1.662410 0
M  V30 END ATOM
M  V30 BEGIN BOND
M  V30 1 1 1 2
M  V30 2 1 2 3
M  V30 3 2 3 4
M  V30 4 1 4 5
M  V30 5 2 5 6
M  V30 6 1 6 7
M  V30 7 1 7 8
M  V30 8 2 8 9
M  V30 9 1 9 10
M  V30 10 1 10 11
M  V30 11 1 11 12
M  V30 12 1 12 13
M  V30 13 2 13 14
M  V30 14 1 14 15
M  V30 15 1 15 16
M  V30 16 1 16 17
M  V30 17 2 17 18
M  V30 18 1 18 19
M  V30 19 1 19 20
M  V30 20 2 15 21
M  V30 21 1 21 22
M  V30 22 2 22 23
M  V30 23 1 23 24
M  V30 24 2 24 25
M  V30 25 1 25 26
M  V30 26 2 26 27
M  V30 27 1 9 28
M  V30 28 2 28 29
M  V30 29 1 29 3
M  V30 30 1 28 6
M  V30 31 1 27 13
M  V30 32 2 20 16
M  V30 33 1 27 22
M  V30 34 1 1 30
M  V30 35 1 1 31
M  V30 36 1 1 32
M  V30 37 1 4 33
M  V30 38 1 5 34
M  V30 39 1 7 35
M  V30 40 1 8 36
M  V30 41 1 10 37
M  V30 42 1 10 38
M  V30 43 1 11 39
M  V30 44 1 11 40
M  V30 45 1 12 41
M  V30 46 1 17 42
M  V30 47 1 18 43
M  V30 48 1 20 44
M  V30 49 1 23 45
M  V30 50 1 24 46
M  V30 51 1 25 47
M  V30 52 1 26 48
M  V30 53 1 29 49
M  V30 END BOND
M  V30 END CTAB
M  END
>  <Dataset>  (198) 
ChEMBL_Kinases

>  <Ligand_Instance>  (198) 
nan

>  <PDB_ID>  (198) 
nan

>  <Standardized_SMILES>  (198) 
COc1ccc2[nH]cc(CCNc3nc(-c4ccoc4)nc4ccccc34)c2c1

>  <Name>  (198) 
nan

>  <Pocket>  (198) 
nan

>  <ATP_Site>  (198) 
nan

>  <Peripheral>  (198) 
nan

>  <Num_H_Atoms_ProtBoundConf>  (198) 
nan

>  <Num_Resolved_Atoms>  (198) 
nan

>  <Num_Not_Resolved_Atoms>  (198) 
nan

$$$$
CHEMBL1591107
     RDKit          3D

  0  0  0  0  0  0  0  0  0  0999 V3000
M  V30 BEGIN CTAB
M  V30 COUNTS 38 41 0 0 0
M  V30 BEGIN ATOM
M  V30 1 Cl -0.099104 -4.674269 2.849678 0
M  V30 2 C 1.587910 -4.288887 2.746291 0
M  V30 3 C 2.561373 -5.166185 3.239091 0
M  V30 4 C 3.906105 -4.828459 3.141342 0
M  V30 5 C 4.298272 -3.632113 2.561318 0
M  V30 6 C 3.379114 -2.722432 2.055183 0
M  V30 7 C 2.067070 -3.123684 2.186575 0
M  V30 8 C 1.029526 -2.232046 1.683235 0
M  V30 9 N 1.351237 -1.077589 1.120877 0
M  V30 10 C 0.528311 -0.148663 0.610295 0
M  V30 11 N 0.863485 1.091103 0.006070 0
M  V30 12 C 1.235561 2.320695 -0.591078 0
M  V30 13 C 0.083475 3.113106 -1.041987 0
M  V30 14 C -0.619863 3.156642 -2.280390 0
M  V30 15 C -1.674594 4.002968 -2.427445 0
M  V30 16 C -2.013310 4.834675 -1.248681 0
M  V30 17 S -0.737792 4.312001 0.025664 0
M  V30 18 C -0.812651 -0.449792 0.689484 0
M  V30 19 C -1.880379 0.301571 0.254714 0
M  V30 20 C -3.206639 -0.045681 0.357693 0
M  V30 21 C -3.527100 -1.250568 0.945472 0
M  V30 22 C -2.531369 -2.077308 1.414219 0
M  V30 23 C -1.236576 -1.629323 1.258947 0
M  V30 24 N -0.278998 -2.442945 1.718879 0
M  V30 25 H 2.238934 -6.089136 3.685515 0
M  V30 26 H 4.657358 -5.507641 3.522705 0
M  V30 27 H 5.361281 -3.355212 2.479037 0
M  V30 28 H 3.622622 -1.780295 1.594916 0
M  V30 29 H 1.921002 0.966975 0.126795 0
M  V30 30 H 1.828961 3.024362 0.072612 0
M  V30 31 H 1.873897 2.211022 -1.518913 0
M  V30 32 H -0.221478 2.477853 -3.011276 0
M  V30 33 H -2.198062 4.028107 -3.365108 0
M  V30 34 H -2.933906 5.537207 -1.456167 0
M  V30 35 H -1.660552 1.238654 -0.204169 0
M  V30 36 H -3.969646 0.616217 -0.015754 0
M  V30 37 H -4.570758 -1.508443 1.018799 0
M  V30 38 H -2.747998 -3.023622 1.877742 0
M  V30 END ATOM
M  V30 BEGIN BOND
M  V30 1 1 1 2
M  V30 2 2 2 3
M  V30 3 1 3 4
M  V30 4 2 4 5
M  V30 5 1 5 6
M  V30 6 2 6 7
M  V30 7 1 7 8
M  V30 8 2 8 9
M  V30 9 1 9 10
M  V30 10 1 10 11
M  V30 11 1 11 12
M  V30 12 1 12 13
M  V30 13 2 13 14
M  V30 14 1 14 15
M  V30 15 2 15 16
M  V30 16 1 16 17
M  V30 17 2 10 18
M  V30 18 1 18 19
M  V30 19 2 19 20
M  V30 20 1 20 21
M  V30 21 2 21 22
M  V30 22 1 22 23
M  V30 23 2 23 24
M  V30 24 1 7 2
M  V30 25 1 24 8
M  V30 26 1 17 13
M  V30 27 1 23 18
M  V30 28 1 3 25
M  V30 29 1 4 26
M  V30 30 1 5 27
M  V30 31 1 6 28
M  V30 32 1 11 29
M  V30 33 1 12 30
M  V30 34 1 12 31
M  V30 35 1 14 32
M  V30 36 1 15 33
M  V30 37 1 16 34
M  V30 38 1 19 35
M  V30 39 1 20 36
M  V30 40 1 21 37
M  V30 41 1 22 38
M  V30 END BOND
M  V30 END CTAB
M  END
>  <Dataset>  (199) 
ChEMBL_Kinases

>  <Ligand_Instance>  (199) 
nan

>  <PDB_ID>  (199) 
nan

>  <Standardized_SMILES>  (199) 
Clc1ccccc1-c1nc(NCc2cccs2)c2ccccc2n1

>  <Name>  (199) 
nan

>  <Pocket>  (199) 
nan

>  <ATP_Site>  (199) 
nan

>  <Peripheral>  (199) 
nan

>  <Num_H_Atoms_ProtBoundConf>  (199) 
nan

>  <Num_Resolved_Atoms>  (199) 
nan

>  <Num_Not_Resolved_Atoms>  (199) 
nan

$$$$
CHEMBL1591275
     RDKit          3D

  0  0  0  0  0  0  0  0  0  0999 V3000
M  V30 BEGIN CTAB
M  V30 COUNTS 44 47 0 0 0
M  V30 BEGIN ATOM
M  V30 1 C 0.599378 -5.343714 1.111895 0
M  V30 2 O 0.557164 -3.954284 0.848174 0
M  V30 3 C 0.666851 -3.517172 -0.463226 0
M  V30 4 C 0.813039 -4.450672 -1.463141 0
M  V30 5 C 0.921718 -4.016457 -2.763063 0
M  V30 6 C 0.884775 -2.677248 -3.054646 0
M  V30 7 C 0.741158 -1.702885 -2.100585 0
M  V30 8 N 0.707912 -0.328606 -2.446481 0
M  V30 9 C 0.567635 0.808880 -1.609375 0
M  V30 10 N 0.561575 2.038026 -2.154047 0
M  V30 11 C 0.432971 3.154606 -1.423086 0
M  V30 12 C 0.299267 3.077095 -0.053535 0
M  V30 13 N 0.164825 4.139275 0.762259 0
M  V30 14 C 0.037241 4.009757 2.096352 0
M  V30 15 C -0.107798 5.236134 2.936539 0
M  V30 16 C 0.041924 2.750746 2.669491 0
M  V30 17 O -0.075959 2.618259 3.908492 0
M  V30 18 N 0.176434 1.689676 1.852478 0
M  V30 19 C 0.182672 0.387347 2.431447 0
M  V30 20 C -1.074327 -0.176028 2.658155 0
M  V30 21 C -1.269368 -1.426097 3.210090 0
M  V30 22 C -0.135797 -2.137757 3.547764 0
M  V30 23 C 1.127558 -1.617641 3.340404 0
M  V30 24 C 1.288526 -0.359333 2.784165 0
M  V30 25 C 0.302308 1.829246 0.530417 0
M  V30 26 N 0.435580 0.773374 -0.276942 0
M  V30 27 C 0.637766 -2.202734 -0.821108 0
M  V30 28 H 0.684712 -5.445314 2.224728 0
M  V30 29 H 1.509588 -5.783911 0.671712 0
M  V30 30 H -0.314946 -5.867717 0.720539 0
M  V30 31 H 0.842342 -5.505302 -1.235726 0
M  V30 32 H 1.038145 -4.733882 -3.572169 0
M  V30 33 H 0.976123 -2.394489 -4.106628 0
M  V30 34 H 0.802783 -0.133761 -3.487605 0
M  V30 35 H 0.431792 4.121022 -1.887008 0
M  V30 36 H -1.098618 5.275537 3.417954 0
M  V30 37 H 0.622529 5.191513 3.789962 0
M  V30 38 H 0.134865 6.118736 2.346577 0
M  V30 39 H -1.982731 0.363465 2.401252 0
M  V30 40 H -2.270053 -1.819413 3.366046 0
M  V30 41 H -0.255686 -3.120999 3.982517 0
M  V30 42 H 2.035164 -2.152186 3.595094 0
M  V30 43 H 2.235817 0.141432 2.579444 0
M  V30 44 H 0.521031 -1.527343 0.012010 0
M  V30 END ATOM
M  V30 BEGIN BOND
M  V30 1 1 1 2
M  V30 2 1 2 3
M  V30 3 2 3 4
M  V30 4 1 4 5
M  V30 5 2 5 6
M  V30 6 1 6 7
M  V30 7 1 7 8
M  V30 8 1 8 9
M  V30 9 2 9 10
M  V30 10 1 10 11
M  V30 11 2 11 12
M  V30 12 1 12 13
M  V30 13 2 13 14
M  V30 14 1 14 15
M  V30 15 1 14 16
M  V30 16 2 16 17
M  V30 17 1 16 18
M  V30 18 1 18 19
M  V30 19 2 19 20
M  V30 20 1 20 21
M  V30 21 2 21 22
M  V30 22 1 22 23
M  V30 23 2 23 24
M  V30 24 1 18 25
M  V30 25 2 25 26
M  V30 26 2 7 27
M  V30 27 1 27 3
M  V30 28 1 26 9
M  V30 29 1 25 12
M  V30 30 1 24 19
M  V30 31 1 1 28
M  V30 32 1 1 29
M  V30 33 1 1 30
M  V30 34 1 4 31
M  V30 35 1 5 32
M  V30 36 1 6 33
M  V30 37 1 8 34
M  V30 38 1 11 35
M  V30 39 1 15 36
M  V30 40 1 15 37
M  V30 41 1 15 38
M  V30 42 1 20 39
M  V30 43 1 21 40
M  V30 44 1 22 41
M  V30 45 1 23 42
M  V30 46 1 24 43
M  V30 47 1 27 44
M  V30 END BOND
M  V30 END CTAB
M  END
>  <Dataset>  (200) 
ChEMBL_Kinases

>  <Ligand_Instance>  (200) 
nan

>  <PDB_ID>  (200) 
nan

>  <Standardized_SMILES>  (200) 
COc1cccc(Nc2ncc3nc(C)c(=O)n(-c4ccccc4)c3n2)c1

>  <Name>  (200) 
nan

>  <Pocket>  (200) 
nan

>  <ATP_Site>  (200) 
nan

>  <Peripheral>  (200) 
nan

>  <Num_H_Atoms_ProtBoundConf>  (200) 
nan

>  <Num_Resolved_Atoms>  (200) 
nan

>  <Num_Not_Resolved_Atoms>  (200) 
nan

$$$$
CHEMBL1591459
     RDKit          3D

  0  0  0  0  0  0  0  0  0  0999 V3000
M  V30 BEGIN CTAB
M  V30 COUNTS 45 48 0 0 0
M  V30 BEGIN ATOM
M  V30 1 C -0.485395 -1.719349 3.284404 0
M  V30 2 O 0.402261 -2.097063 2.259665 0
M  V30 3 C 1.692641 -1.620059 2.145058 0
M  V30 4 C 2.247913 -0.707832 3.044251 0
M  V30 5 C 3.534382 -0.225312 2.947279 0
M  V30 6 C 4.297324 -0.679529 1.900253 0
M  V30 7 C 3.748395 -1.580025 1.012613 0
M  V30 8 C 2.449371 -2.082360 1.089048 0
M  V30 9 C 2.031878 -3.011376 0.031252 0
M  V30 10 C 1.296855 -2.344354 -1.082694 0
M  V30 11 N 0.105477 -1.650847 -0.685797 0
M  V30 12 C 0.129126 -0.333463 -0.374167 0
M  V30 13 O 1.251526 0.273651 -0.438868 0
M  V30 14 C -0.956568 0.441062 0.014925 0
M  V30 15 C -0.762615 1.873053 0.314474 0
M  V30 16 C 0.249658 2.427746 1.070909 0
M  V30 17 C 0.245273 3.819834 1.226875 0
M  V30 18 C -0.723284 4.616339 0.654716 0
M  V30 19 Cl -0.641997 6.363553 0.911692 0
M  V30 20 C -1.742581 4.061673 -0.106500 0
M  V30 21 C -1.736506 2.669059 -0.261352 0
M  V30 22 N -2.143838 -0.205573 0.082125 0
M  V30 23 C -2.227498 -1.516222 -0.216698 0
M  V30 24 C -3.492162 -2.091803 -0.119198 0
M  V30 25 N -3.592728 -3.416723 -0.419604 0
M  V30 26 C -2.472046 -4.091487 -0.790781 0
M  V30 27 N -1.240109 -3.533509 -0.886366 0
M  V30 28 C -1.097587 -2.230348 -0.599639 0
M  V30 29 H -0.003657 -1.971361 4.263019 0
M  V30 30 H -0.751041 -0.654089 3.192372 0
M  V30 31 H -1.414724 -2.336157 3.164274 0
M  V30 32 H 1.543758 -0.421435 3.833345 0
M  V30 33 H 3.863717 0.473146 3.689529 0
M  V30 34 H 5.304076 -0.328691 1.789819 0
M  V30 35 H 4.403600 -1.896707 0.212007 0
M  V30 36 H 2.938232 -3.501185 -0.427651 0
M  V30 37 H 1.361777 -3.823516 0.431695 0
M  V30 38 H 2.041977 -1.624356 -1.554792 0
M  V30 39 H 1.086787 -3.051962 -1.930208 0
M  V30 40 H 0.962366 1.731520 1.479590 0
M  V30 41 H 1.059556 4.228720 1.830307 0
M  V30 42 H -2.464969 4.732704 -0.524514 0
M  V30 43 H -2.581630 2.358494 -0.874696 0
M  V30 44 H -4.371909 -1.561280 0.172680 0
M  V30 45 H -2.516244 -5.135588 -1.034505 0
M  V30 END ATOM
M  V30 BEGIN BOND
M  V30 1 1 1 2
M  V30 2 1 2 3
M  V30 3 2 3 4
M  V30 4 1 4 5
M  V30 5 2 5 6
M  V30 6 1 6 7
M  V30 7 2 7 8
M  V30 8 1 8 9
M  V30 9 1 9 10
M  V30 10 1 10 11
M  V30 11 1 11 12
M  V30 12 2 12 13
M  V30 13 1 12 14
M  V30 14 1 14 15
M  V30 15 2 15 16
M  V30 16 1 16 17
M  V30 17 2 17 18
M  V30 18 1 18 19
M  V30 19 1 18 20
M  V30 20 2 20 21
M  V30 21 2 14 22
M  V30 22 1 22 23
M  V30 23 2 23 24
M  V30 24 1 24 25
M  V30 25 2 25 26
M  V30 26 1 26 27
M  V30 27 2 27 28
M  V30 28 1 8 3
M  V30 29 1 28 11
M  V30 30 1 21 15
M  V30 31 1 28 23
M  V30 32 1 1 29
M  V30 33 1 1 30
M  V30 34 1 1 31
M  V30 35 1 4 32
M  V30 36 1 5 33
M  V30 37 1 6 34
M  V30 38 1 7 35
M  V30 39 1 9 36
M  V30 40 1 9 37
M  V30 41 1 10 38
M  V30 42 1 10 39
M  V30 43 1 16 40
M  V30 44 1 17 41
M  V30 45 1 20 42
M  V30 46 1 21 43
M  V30 47 1 24 44
M  V30 48 1 26 45
M  V30 END BOND
M  V30 END CTAB
M  END
>  <Dataset>  (201) 
ChEMBL_Kinases

>  <Ligand_Instance>  (201) 
nan

>  <PDB_ID>  (201) 
nan

>  <Standardized_SMILES>  (201) 
COc1ccccc1CCn1c(=O)c(-c2ccc(Cl)cc2)nc2cncnc21

>  <Name>  (201) 
nan

>  <Pocket>  (201) 
nan

>  <ATP_Site>  (201) 
nan

>  <Peripheral>  (201) 
nan

>  <Num_H_Atoms_ProtBoundConf>  (201) 
nan

>  <Num_Resolved_Atoms>  (201) 
nan

>  <Num_Not_Resolved_Atoms>  (201) 
nan

$$$$
CHEMBL1591600
     RDKit          3D

  0  0  0  0  0  0  0  0  0  0999 V3000
M  V30 BEGIN CTAB
M  V30 COUNTS 49 52 0 0 0
M  V30 BEGIN ATOM
M  V30 1 C -0.773094 -2.161440 4.589343 0
M  V30 2 C 0.546897 -2.534859 5.210757 0
M  V30 3 N 1.498364 -2.956445 4.203017 0
M  V30 4 C 1.701042 -1.883769 3.281266 0
M  V30 5 N 2.681878 -1.001898 3.640010 0
M  V30 6 C 2.966713 0.065108 2.834052 0
M  V30 7 C 2.197665 0.139984 1.692413 0
M  V30 8 N 2.476464 1.204243 0.882653 0
M  V30 9 C 1.765135 1.365745 -0.275530 0
M  V30 10 C 2.057601 2.503920 -1.147355 0
M  V30 11 C 1.013569 3.238037 -1.679776 0
M  V30 12 C 1.242299 4.331913 -2.516885 0
M  V30 13 C 2.578629 4.582734 -2.740188 0
M  V30 14 F 2.862785 5.650295 -3.559206 0
M  V30 15 C 3.680399 3.914457 -2.259269 0
M  V30 16 C 3.370622 2.834316 -1.430579 0
M  V30 17 C 0.767280 0.485452 -0.659410 0
M  V30 18 O 0.151951 0.674507 -1.715707 0
M  V30 19 N 0.508313 -0.556584 0.152724 0
M  V30 20 C -0.508578 -1.519683 -0.168293 0
M  V30 21 C -1.875662 -1.178518 0.377259 0
M  V30 22 C -2.779168 -2.295589 -0.066230 0
M  V30 23 C -2.825687 -3.341634 0.848913 0
M  V30 24 C -3.608650 -4.463803 0.611089 0
M  V30 25 C -4.348070 -4.537352 -0.549066 0
M  V30 26 C -4.274372 -3.482074 -1.427464 0
M  V30 27 C -3.506907 -2.354729 -1.220328 0
M  V30 28 C 1.200455 -0.725790 1.293155 0
M  V30 29 N 0.958980 -1.773591 2.137191 0
M  V30 30 H -0.812743 -1.069467 4.391853 0
M  V30 31 H -0.940227 -2.769725 3.699147 0
M  V30 32 H -1.545338 -2.359614 5.372369 0
M  V30 33 H 0.953369 -1.613454 5.724155 0
M  V30 34 H 0.451391 -3.278540 6.028191 0
M  V30 35 H 1.899475 -3.916356 4.252572 0
M  V30 36 H 3.724550 0.794565 3.057401 0
M  V30 37 H -0.026478 2.993720 -1.469638 0
M  V30 38 H 0.486098 4.953779 -2.970952 0
M  V30 39 H 4.684004 4.202292 -2.501454 0
M  V30 40 H 4.169439 2.242244 -0.999988 0
M  V30 41 H -0.614257 -1.531882 -1.291527 0
M  V30 42 H -0.176926 -2.527245 0.159081 0
M  V30 43 H -1.880221 -1.054341 1.459114 0
M  V30 44 H -2.298405 -0.271902 -0.090528 0
M  V30 45 H -2.295314 -3.392719 1.779634 0
M  V30 46 H -3.670426 -5.306473 1.306999 0
M  V30 47 H -4.967385 -5.389942 -0.770687 0
M  V30 48 H -4.856386 -3.525064 -2.355207 0
M  V30 49 H -3.418173 -1.510279 -1.873492 0
M  V30 END ATOM
M  V30 BEGIN BOND
M  V30 1 1 1 2
M  V30 2 1 2 3
M  V30 3 1 3 4
M  V30 4 2 4 5
M  V30 5 1 5 6
M  V30 6 2 6 7
M  V30 7 1 7 8
M  V30 8 2 8 9
M  V30 9 1 9 10
M  V30 10 2 10 11
M  V30 11 1 11 12
M  V30 12 2 12 13
M  V30 13 1 13 14
M  V30 14 1 13 15
M  V30 15 2 15 16
M  V30 16 1 9 17
M  V30 17 2 17 18
M  V30 18 1 17 19
M  V30 19 1 19 20
M  V30 20 1 20 21
M  V30 21 1 21 22
M  V30 22 2 22 23
M  V30 23 1 23 24
M  V30 24 2 24 25
M  V30 25 1 25 26
M  V30 26 2 26 27
M  V30 27 1 19 28
M  V30 28 2 28 29
M  V30 29 1 29 4
M  V30 30 1 28 7
M  V30 31 1 16 10
M  V30 32 1 27 22
M  V30 33 1 1 30
M  V30 34 1 1 31
M  V30 35 1 1 32
M  V30 36 1 2 33
M  V30 37 1 2 34
M  V30 38 1 3 35
M  V30 39 1 6 36
M  V30 40 1 11 37
M  V30 41 1 12 38
M  V30 42 1 15 39
M  V30 43 1 16 40
M  V30 44 1 20 41
M  V30 45 1 20 42
M  V30 46 1 21 43
M  V30 47 1 21 44
M  V30 48 1 23 45
M  V30 49 1 24 46
M  V30 50 1 25 47
M  V30 51 1 26 48
M  V30 52 1 27 49
M  V30 END BOND
M  V30 END CTAB
M  END
>  <Dataset>  (202) 
ChEMBL_Kinases

>  <Ligand_Instance>  (202) 
nan

>  <PDB_ID>  (202) 
nan

>  <Standardized_SMILES>  (202) 
CCNc1ncc2nc(-c3ccc(F)cc3)c(=O)n(CCc3ccccc3)c2n1

>  <Name>  (202) 
nan

>  <Pocket>  (202) 
nan

>  <ATP_Site>  (202) 
nan

>  <Peripheral>  (202) 
nan

>  <Num_H_Atoms_ProtBoundConf>  (202) 
nan

>  <Num_Resolved_Atoms>  (202) 
nan

>  <Num_Not_Resolved_Atoms>  (202) 
nan

$$$$
CHEMBL1591731
     RDKit          3D

  0  0  0  0  0  0  0  0  0  0999 V3000
M  V30 BEGIN CTAB
M  V30 COUNTS 79 81 0 0 0
M  V30 BEGIN ATOM
M  V30 1 C 4.221346 -2.155250 -0.009508 0
M  V30 2 C 4.080857 -0.847364 0.146536 0
M  V30 3 C 3.347776 0.117220 -0.727189 0 CFG=1
M  V30 4 C 4.462271 1.009726 -1.293391 0
M  V30 5 C 2.741030 -0.688853 -1.836184 0
M  V30 6 C 1.689615 0.175939 -2.441878 0
M  V30 7 O 1.606663 0.104629 -3.658144 0
M  V30 8 C 0.808802 1.063502 -1.591241 0 CFG=1
M  V30 9 O 0.884377 2.287167 -2.316587 0
M  V30 10 C -0.613832 0.619673 -1.667670 0 CFG=1
M  V30 11 C -1.444498 1.867216 -1.824277 0
M  V30 12 C -0.982123 -0.075879 -2.972082 0 CFG=1
M  V30 13 O -0.400364 -1.364017 -2.876279 0
M  V30 14 C -2.463770 -0.332518 -2.991600 0
M  V30 15 C -3.188647 -0.590584 -1.764004 0
M  V30 16 C -2.526832 -0.372759 -0.417989 0
M  V30 17 C -2.835534 -1.661226 0.380235 0
M  V30 18 C -3.128672 0.668641 0.431391 0
M  V30 19 C -1.060553 -0.364476 -0.639751 0 CFG=2
M  V30 20 C -0.158572 -0.412348 0.555011 0 CFG=2
M  V30 21 O -0.614494 -1.163933 1.636910 0
M  V30 22 C 0.077467 -2.290641 2.124451 0
M  V30 23 O 1.167541 -2.626528 1.540677 0
M  V30 24 C -0.454429 -3.021628 3.251985 0
M  V30 25 C -1.379532 -4.147814 3.030578 0
M  V30 26 N -0.971427 -5.263384 2.293420 0
M  V30 27 C -0.743652 -5.203092 0.916503 0
M  V30 28 C -0.211964 -6.251355 3.012458 0
M  V30 29 C 0.448438 0.923381 0.923350 0 CFG=2
M  V30 30 O -0.425319 1.894664 1.348681 0
M  V30 31 C -0.527419 2.451739 2.598224 0
M  V30 32 C -1.501998 3.513285 3.011294 0
M  V30 33 O 0.263288 2.033154 3.460018 0
M  V30 34 C 1.354843 1.333055 -0.254200 0 CFG=2
M  V30 35 C 1.501438 2.842857 -0.006390 0
M  V30 36 O 2.572620 0.836960 0.053601 0
M  V30 37 H 3.848627 -2.812277 -0.783020 0
M  V30 38 H 4.774225 -2.741989 0.692755 0
M  V30 39 H 4.548433 -0.389146 1.008625 0
M  V30 40 H 4.155073 1.466972 -2.246909 0
M  V30 41 H 5.312094 0.339562 -1.552995 0
M  V30 42 H 4.791724 1.712516 -0.516205 0
M  V30 43 H 3.549761 -0.933952 -2.551427 0
M  V30 44 H 2.344785 -1.626426 -1.446698 0
M  V30 45 H 1.766816 2.420580 -2.730400 0
M  V30 46 H -2.490807 1.735409 -2.057879 0
M  V30 47 H -1.218367 2.688197 -1.135350 0
M  V30 48 H -1.050366 2.311950 -2.798617 0
M  V30 49 H -0.686798 0.467530 -3.868021 0
M  V30 50 H -0.935987 -2.043456 -3.333409 0
M  V30 51 H -2.573646 -1.183193 -3.740448 0
M  V30 52 H -2.930945 0.496607 -3.585118 0
M  V30 53 H -4.127701 0.047853 -1.699271 0
M  V30 54 H -3.655642 -1.600978 -1.838195 0
M  V30 55 H -2.890538 -1.508232 1.452683 0
M  V30 56 H -3.882982 -1.984388 0.090952 0
M  V30 57 H -2.195283 -2.469263 0.043373 0
M  V30 58 H -2.879290 0.453918 1.513222 0
M  V30 59 H -2.952180 1.704781 0.280377 0
M  V30 60 H -4.241502 0.490634 0.403064 0
M  V30 61 H -0.930750 -1.407154 -1.044922 0
M  V30 62 H 0.799795 -0.947143 0.253393 0
M  V30 63 H 0.414718 -3.429940 3.830050 0
M  V30 64 H -0.934917 -2.317938 3.997682 0
M  V30 65 H -1.633558 -4.534789 4.070665 0
M  V30 66 H -2.388914 -3.838317 2.655414 0
M  V30 67 H -1.548610 -5.764305 0.347990 0
M  V30 68 H 0.195446 -5.782551 0.670002 0
M  V30 69 H -0.664027 -4.246956 0.414589 0
M  V30 70 H -0.373902 -7.227386 2.513845 0
M  V30 71 H -0.550240 -6.263389 4.051740 0
M  V30 72 H 0.860231 -6.008296 2.867199 0
M  V30 73 H 1.059396 0.682224 1.834029 0
M  V30 74 H -1.083465 4.535412 2.781009 0
M  V30 75 H -1.771951 3.452578 4.066144 0
M  V30 76 H -2.405639 3.410665 2.376999 0
M  V30 77 H 2.312549 3.083242 0.709679 0
M  V30 78 H 1.789811 3.383364 -0.940549 0
M  V30 79 H 0.600237 3.292027 0.420795 0
M  V30 END ATOM
M  V30 BEGIN BOND
M  V30 1 2 1 2
M  V30 2 1 2 3
M  V30 3 1 3 4 CFG=3
M  V30 4 1 3 5
M  V30 5 1 5 6
M  V30 6 2 6 7
M  V30 7 1 6 8
M  V30 8 1 8 9 CFG=3
M  V30 9 1 8 10
M  V30 10 1 10 11 CFG=1
M  V30 11 1 10 12
M  V30 12 1 12 13
M  V30 13 1 12 14
M  V30 14 1 14 15
M  V30 15 1 15 16
M  V30 16 1 16 17
M  V30 17 1 16 18
M  V30 18 1 16 19
M  V30 19 1 19 20
M  V30 20 1 20 21
M  V30 21 1 21 22
M  V30 22 2 22 23
M  V30 23 1 22 24
M  V30 24 1 24 25
M  V30 25 1 25 26
M  V30 26 1 26 27
M  V30 27 1 26 28
M  V30 28 1 20 29
M  V30 29 1 29 30
M  V30 30 1 30 31
M  V30 31 1 31 32
M  V30 32 2 31 33
M  V30 33 1 29 34
M  V30 34 1 34 35 CFG=3
M  V30 35 1 34 36
M  V30 36 1 36 3
M  V30 37 1 34 8
M  V30 38 1 19 10
M  V30 39 1 1 37
M  V30 40 1 1 38
M  V30 41 1 2 39
M  V30 42 1 4 40
M  V30 43 1 4 41
M  V30 44 1 4 42
M  V30 45 1 5 43
M  V30 46 1 5 44
M  V30 47 1 9 45
M  V30 48 1 11 46
M  V30 49 1 11 47
M  V30 50 1 11 48
M  V30 51 1 12 49 CFG=3
M  V30 52 1 13 50
M  V30 53 1 14 51
M  V30 54 1 14 52
M  V30 55 1 15 53
M  V30 56 1 15 54
M  V30 57 1 17 55
M  V30 58 1 17 56
M  V30 59 1 17 57
M  V30 60 1 18 58
M  V30 61 1 18 59
M  V30 62 1 18 60
M  V30 63 1 19 61 CFG=3
M  V30 64 1 20 62 CFG=3
M  V30 65 1 24 63
M  V30 66 1 24 64
M  V30 67 1 25 65
M  V30 68 1 25 66
M  V30 69 1 27 67
M  V30 70 1 27 68
M  V30 71 1 27 69
M  V30 72 1 28 70
M  V30 73 1 28 71
M  V30 74 1 28 72
M  V30 75 1 29 73 CFG=1
M  V30 76 1 32 74
M  V30 77 1 32 75
M  V30 78 1 32 76
M  V30 79 1 35 77
M  V30 80 1 35 78
M  V30 81 1 35 79
M  V30 END BOND
M  V30 END CTAB
M  END
>  <Dataset>  (203) 
ChEMBL_Kinases

>  <Ligand_Instance>  (203) 
nan

>  <PDB_ID>  (203) 
nan

>  <Standardized_SMILES>  (203) 
C=C[C@@]1(C)CC(=O)[C@@]2(O)[C@@]3(C)[C@@H](O)CCC(C)(C)[C@@H]3[C@H](OC(=O)CCN(C)C)[C@H](OC(C)=O)[C@@]2(C)O1

>  <Name>  (203) 
nan

>  <Pocket>  (203) 
nan

>  <ATP_Site>  (203) 
nan

>  <Peripheral>  (203) 
nan

>  <Num_H_Atoms_ProtBoundConf>  (203) 
nan

>  <Num_Resolved_Atoms>  (203) 
nan

>  <Num_Not_Resolved_Atoms>  (203) 
nan

$$$$
CHEMBL1592376
     RDKit          3D

  0  0  0  0  0  0  0  0  0  0999 V3000
M  V30 BEGIN CTAB
M  V30 COUNTS 56 59 0 0 0
M  V30 BEGIN ATOM
M  V30 1 C -0.252371 -2.755062 3.240678 0
M  V30 2 O 0.497600 -2.077610 2.273630 0
M  V30 3 C 1.857874 -1.926384 2.381804 0
M  V30 4 C 2.727999 -2.351085 3.359441 0
M  V30 5 C 4.100669 -2.099102 3.284244 0
M  V30 6 C 4.605457 -1.407544 2.208229 0
M  V30 7 N 5.851396 -1.029154 1.818235 0
M  V30 8 C 5.819112 -0.375470 0.633654 0
M  V30 9 C 4.490811 -0.299557 0.188355 0
M  V30 10 C 4.014461 0.376720 -1.031430 0
M  V30 11 C 3.665056 1.808455 -0.914031 0
M  V30 12 N 2.657506 2.092373 0.031991 0
M  V30 13 C 1.341669 2.067617 0.535629 0
M  V30 14 C 0.293366 1.387127 -0.049937 0
M  V30 15 C -0.995954 1.392434 0.411702 0
M  V30 16 C -2.144266 0.693597 -0.137710 0
M  V30 17 C -3.347923 0.872824 0.539089 0
M  V30 18 C -4.499954 0.240124 0.133342 0
M  V30 19 C -4.466201 -0.586236 -0.962671 0
M  V30 20 C -5.506783 -1.372364 -1.604600 0
M  V30 21 O -6.557868 -1.105715 -2.240450 0
M  V30 22 N -5.282277 -2.792119 -1.486580 0
M  V30 23 C -6.266186 -3.624259 -2.103421 0
M  V30 24 C -4.183925 -3.458253 -0.812251 0
M  V30 25 C -3.260899 -0.771651 -1.648658 0
M  V30 26 C -2.095838 -0.128165 -1.233370 0
M  V30 27 N -1.160573 2.145523 1.523185 0
M  V30 28 C -0.177242 2.820214 2.124049 0
M  V30 29 N 1.058217 2.791295 1.649840 0
M  V30 30 C 3.802371 -0.947157 1.191207 0
M  V30 31 C 2.437542 -1.231799 1.323471 0
M  V30 32 H -1.020307 -2.079204 3.690729 0
M  V30 33 H 0.370923 -3.103327 4.057466 0
M  V30 34 H -0.780400 -3.637319 2.779467 0
M  V30 35 H 2.324762 -2.887124 4.189318 0
M  V30 36 H 4.734870 -2.454033 4.075864 0
M  V30 37 H 6.674584 -1.272291 2.446405 0
M  V30 38 H 6.717250 -0.001496 0.161586 0
M  V30 39 H 3.173184 -0.251460 -1.420698 0
M  V30 40 H 4.803364 0.278347 -1.843887 0
M  V30 41 H 3.197400 2.163055 -1.921991 0
M  V30 42 H 4.571062 2.461686 -0.893348 0
M  V30 43 H 3.310911 2.567694 0.721489 0
M  V30 44 H 0.470659 0.799288 -0.947431 0
M  V30 45 H -3.499838 1.500567 1.419022 0
M  V30 46 H -5.477561 0.308414 0.579100 0
M  V30 47 H -5.868663 -3.892078 -3.125354 0
M  V30 48 H -7.242371 -3.158380 -2.287879 0
M  V30 49 H -6.441022 -4.574720 -1.571215 0
M  V30 50 H -3.414910 -3.692717 -1.563719 0
M  V30 51 H -3.726083 -2.792355 -0.055055 0
M  V30 52 H -4.567510 -4.374066 -0.305100 0
M  V30 53 H -3.068175 -1.383178 -2.517660 0
M  V30 54 H -1.134299 -0.221565 -1.707467 0
M  V30 55 H -0.328700 3.421670 3.019692 0
M  V30 56 H 1.821532 -0.880884 0.516844 0
M  V30 END ATOM
M  V30 BEGIN BOND
M  V30 1 1 1 2
M  V30 2 1 2 3
M  V30 3 2 3 4
M  V30 4 1 4 5
M  V30 5 2 5 6
M  V30 6 1 6 7
M  V30 7 1 7 8
M  V30 8 2 8 9
M  V30 9 1 9 10
M  V30 10 1 10 11
M  V30 11 1 11 12
M  V30 12 1 12 13
M  V30 13 2 13 14
M  V30 14 1 14 15
M  V30 15 1 15 16
M  V30 16 2 16 17
M  V30 17 1 17 18
M  V30 18 2 18 19
M  V30 19 1 19 20
M  V30 20 2 20 21
M  V30 21 1 20 22
M  V30 22 1 22 23
M  V30 23 1 22 24
M  V30 24 1 19 25
M  V30 25 2 25 26
M  V30 26 2 15 27
M  V30 27 1 27 28
M  V30 28 2 28 29
M  V30 29 1 9 30
M  V30 30 2 30 31
M  V30 31 1 31 3
M  V30 32 1 30 6
M  V30 33 1 29 13
M  V30 34 1 26 16
M  V30 35 1 1 32
M  V30 36 1 1 33
M  V30 37 1 1 34
M  V30 38 1 4 35
M  V30 39 1 5 36
M  V30 40 1 7 37
M  V30 41 1 8 38
M  V30 42 1 10 39
M  V30 43 1 10 40
M  V30 44 1 11 41
M  V30 45 1 11 42
M  V30 46 1 12 43
M  V30 47 1 14 44
M  V30 48 1 17 45
M  V30 49 1 18 46
M  V30 50 1 23 47
M  V30 51 1 23 48
M  V30 52 1 23 49
M  V30 53 1 24 50
M  V30 54 1 24 51
M  V30 55 1 24 52
M  V30 56 1 25 53
M  V30 57 1 26 54
M  V30 58 1 28 55
M  V30 59 1 31 56
M  V30 END BOND
M  V30 END CTAB
M  END
>  <Dataset>  (204) 
ChEMBL_Kinases

>  <Ligand_Instance>  (204) 
nan

>  <PDB_ID>  (204) 
nan

>  <Standardized_SMILES>  (204) 
COc1ccc2[nH]cc(CCNc3cc(-c4ccc(C(=O)N(C)C)cc4)ncn3)c2c1

>  <Name>  (204) 
nan

>  <Pocket>  (204) 
nan

>  <ATP_Site>  (204) 
nan

>  <Peripheral>  (204) 
nan

>  <Num_H_Atoms_ProtBoundConf>  (204) 
nan

>  <Num_Resolved_Atoms>  (204) 
nan

>  <Num_Not_Resolved_Atoms>  (204) 
nan

$$$$
CHEMBL1591815
     RDKit          3D

  0  0  0  0  0  0  0  0  0  0999 V3000
M  V30 BEGIN CTAB
M  V30 COUNTS 40 43 0 0 0
M  V30 BEGIN ATOM
M  V30 1 C 2.429104 -3.038506 0.805293 0
M  V30 2 N 2.079561 -1.682401 0.431749 0
M  V30 3 C 2.995455 -0.922229 -0.198346 0
M  V30 4 O 4.158437 -1.325946 -0.487821 0
M  V30 5 C 2.699126 0.381174 -0.572370 0
M  V30 6 C 3.604091 1.300244 -1.257594 0
M  V30 7 C 3.609050 2.582486 -0.715723 0
M  V30 8 C 4.427479 3.537609 -1.282508 0
M  V30 9 F 4.500012 4.804056 -0.827862 0
M  V30 10 C 5.203164 3.171200 -2.362947 0
M  V30 11 C 5.222166 1.899124 -2.929016 0
M  V30 12 F 6.002624 1.593727 -3.989072 0
M  V30 13 C 4.393950 0.965722 -2.341293 0
M  V30 14 N 1.453446 0.859477 -0.279423 0
M  V30 15 C 0.551388 0.085927 0.350425 0
M  V30 16 C -0.701544 0.578183 0.640912 0
M  V30 17 N -1.531874 -0.243359 1.261519 0
M  V30 18 C -1.293955 -1.504827 1.641999 0
M  V30 19 N -2.206488 -2.364148 2.307771 0
M  V30 20 C -3.523476 -2.090992 2.704147 0
M  V30 21 C -4.297011 -3.052961 3.355533 0
M  V30 22 C -5.588417 -2.842212 3.765497 0
M  V30 23 C -6.202642 -1.630173 3.545864 0
M  V30 24 C -5.490759 -0.642038 2.908043 0
M  V30 25 C -4.211109 -0.914365 2.525489 0
M  V30 26 N -0.065674 -1.954567 1.344984 0
M  V30 27 C 0.853848 -1.207210 0.718299 0
M  V30 28 H 3.201741 -3.055545 1.616344 0
M  V30 29 H 1.537323 -3.596680 1.134476 0
M  V30 30 H 2.912470 -3.496584 -0.101774 0
M  V30 31 H 3.005847 2.880854 0.130205 0
M  V30 32 H 5.867786 3.906440 -2.840480 0
M  V30 33 H 4.341431 -0.039783 -2.708281 0
M  V30 34 H -0.986254 1.581775 0.374313 0
M  V30 35 H -1.860399 -3.332654 2.538091 0
M  V30 36 H -3.852825 -4.039342 3.555341 0
M  V30 37 H -6.112690 -3.647961 4.264321 0
M  V30 38 H -7.210753 -1.545475 3.895660 0
M  V30 39 H -5.990587 0.283888 2.751834 0
M  V30 40 H -3.719564 -0.090369 2.032228 0
M  V30 END ATOM
M  V30 BEGIN BOND
M  V30 1 1 1 2
M  V30 2 1 2 3
M  V30 3 2 3 4
M  V30 4 1 3 5
M  V30 5 1 5 6
M  V30 6 2 6 7
M  V30 7 1 7 8
M  V30 8 1 8 9
M  V30 9 2 8 10
M  V30 10 1 10 11
M  V30 11 1 11 12
M  V30 12 2 11 13
M  V30 13 2 5 14
M  V30 14 1 14 15
M  V30 15 2 15 16
M  V30 16 1 16 17
M  V30 17 2 17 18
M  V30 18 1 18 19
M  V30 19 1 19 20
M  V30 20 2 20 21
M  V30 21 1 21 22
M  V30 22 2 22 23
M  V30 23 1 23 24
M  V30 24 2 24 25
M  V30 25 1 18 26
M  V30 26 2 26 27
M  V30 27 1 27 2
M  V30 28 1 13 6
M  V30 29 1 27 15
M  V30 30 1 25 20
M  V30 31 1 1 28
M  V30 32 1 1 29
M  V30 33 1 1 30
M  V30 34 1 7 31
M  V30 35 1 10 32
M  V30 36 1 13 33
M  V30 37 1 16 34
M  V30 38 1 19 35
M  V30 39 1 21 36
M  V30 40 1 22 37
M  V30 41 1 23 38
M  V30 42 1 24 39
M  V30 43 1 25 40
M  V30 END BOND
M  V30 END CTAB
M  END
>  <Dataset>  (205) 
ChEMBL_Kinases

>  <Ligand_Instance>  (205) 
nan

>  <PDB_ID>  (205) 
nan

>  <Standardized_SMILES>  (205) 
Cn1c(=O)c(-c2cc(F)cc(F)c2)nc2cnc(Nc3ccccc3)nc21

>  <Name>  (205) 
nan

>  <Pocket>  (205) 
nan

>  <ATP_Site>  (205) 
nan

>  <Peripheral>  (205) 
nan

>  <Num_H_Atoms_ProtBoundConf>  (205) 
nan

>  <Num_Resolved_Atoms>  (205) 
nan

>  <Num_Not_Resolved_Atoms>  (205) 
nan

$$$$
CHEMBL1591893
     RDKit          3D

  0  0  0  0  0  0  0  0  0  0999 V3000
M  V30 BEGIN CTAB
M  V30 COUNTS 37 40 0 0 0
M  V30 BEGIN ATOM
M  V30 1 C 1.573600 -4.680887 3.522211 0
M  V30 2 C 1.145954 -3.396159 3.874112 0
M  V30 3 C 0.638160 -2.621371 2.826467 0
M  V30 4 C 0.583995 -3.138909 1.543825 0
M  V30 5 N 0.068307 -2.344491 0.490682 0
M  V30 6 C -0.305513 -1.008987 0.299981 0
M  V30 7 N 0.623586 -0.247011 -0.315869 0
M  V30 8 C 0.467796 1.058182 -0.594642 0
M  V30 9 C 1.486517 1.856053 -1.260862 0
M  V30 10 C 2.691989 1.304212 -1.632474 0
M  V30 11 C 3.699945 1.989706 -2.260226 0
M  V30 12 C 3.463022 3.343471 -2.531906 0
M  V30 13 N 2.283452 3.905757 -2.174320 0
M  V30 14 C 1.308686 3.201016 -1.555052 0
M  V30 15 N -0.696972 1.659097 -0.236856 0
M  V30 16 C -1.673108 0.949568 0.386532 0
M  V30 17 C -2.891531 1.515148 0.783573 0
M  V30 18 C -3.818518 0.703987 1.416665 0
M  V30 19 C -3.619956 -0.637104 1.685363 0
M  V30 20 C -2.411188 -1.220064 1.298300 0
M  V30 21 C -1.503234 -0.395359 0.669688 0
M  V30 22 C 1.013061 -4.405752 1.231320 0
M  V30 23 C 1.520543 -5.203919 2.230548 0
M  V30 24 H 1.978878 -5.332947 4.306545 0
M  V30 25 H 1.221357 -3.068392 4.902669 0
M  V30 26 H 0.296599 -1.608787 3.078472 0
M  V30 27 H -0.133538 -2.764957 -0.465063 0
M  V30 28 H 2.876871 0.251617 -1.420982 0
M  V30 29 H 4.627723 1.492467 -2.524695 0
M  V30 30 H 4.239099 3.905179 -3.025658 0
M  V30 31 H 0.385291 3.688733 -1.288814 0
M  V30 32 H -3.064617 2.557432 0.583759 0
M  V30 33 H -4.732003 1.222201 1.686325 0
M  V30 34 H -4.375163 -1.232174 2.182838 0
M  V30 35 H -2.200954 -2.263834 1.482576 0
M  V30 36 H 0.951225 -4.768486 0.213358 0
M  V30 37 H 1.878286 -6.220661 2.034581 0
M  V30 END ATOM
M  V30 BEGIN BOND
M  V30 1 2 1 2
M  V30 2 1 2 3
M  V30 3 2 3 4
M  V30 4 1 4 5
M  V30 5 1 5 6
M  V30 6 2 6 7
M  V30 7 1 7 8
M  V30 8 1 8 9
M  V30 9 2 9 10
M  V30 10 1 10 11
M  V30 11 2 11 12
M  V30 12 1 12 13
M  V30 13 2 13 14
M  V30 14 2 8 15
M  V30 15 1 15 16
M  V30 16 2 16 17
M  V30 17 1 17 18
M  V30 18 2 18 19
M  V30 19 1 19 20
M  V30 20 2 20 21
M  V30 21 1 4 22
M  V30 22 2 22 23
M  V30 23 1 23 1
M  V30 24 1 21 6
M  V30 25 1 14 9
M  V30 26 1 21 16
M  V30 27 1 1 24
M  V30 28 1 2 25
M  V30 29 1 3 26
M  V30 30 1 5 27
M  V30 31 1 10 28
M  V30 32 1 11 29
M  V30 33 1 12 30
M  V30 34 1 14 31
M  V30 35 1 17 32
M  V30 36 1 18 33
M  V30 37 1 19 34
M  V30 38 1 20 35
M  V30 39 1 22 36
M  V30 40 1 23 37
M  V30 END BOND
M  V30 END CTAB
M  END
>  <Dataset>  (206) 
ChEMBL_Kinases

>  <Ligand_Instance>  (206) 
nan

>  <PDB_ID>  (206) 
nan

>  <Standardized_SMILES>  (206) 
c1ccc(Nc2nc(-c3cccnc3)nc3ccccc23)cc1

>  <Name>  (206) 
nan

>  <Pocket>  (206) 
nan

>  <ATP_Site>  (206) 
nan

>  <Peripheral>  (206) 
nan

>  <Num_H_Atoms_ProtBoundConf>  (206) 
nan

>  <Num_Resolved_Atoms>  (206) 
nan

>  <Num_Not_Resolved_Atoms>  (206) 
nan

$$$$
CHEMBL1591958
     RDKit          3D

  0  0  0  0  0  0  0  0  0  0999 V3000
M  V30 BEGIN CTAB
M  V30 COUNTS 45 48 0 0 0
M  V30 BEGIN ATOM
M  V30 1 O 2.468853 -1.193977 3.903965 0
M  V30 2 S 1.795876 -1.786162 2.726800 0
M  V30 3 O 0.589508 -2.613128 3.144745 0
M  V30 4 C 2.902392 -2.864068 1.906522 0
M  V30 5 C 2.431233 -4.011320 1.302099 0
M  V30 6 C 3.201052 -4.953406 0.617324 0
M  V30 7 C 4.558522 -4.700266 0.546478 0
M  V30 8 C 5.071661 -3.559662 1.140115 0
M  V30 9 C 4.279252 -2.652363 1.807913 0
M  V30 10 N 1.217325 -0.624389 1.614157 0
M  V30 11 C 0.500979 -1.217890 0.541311 0
M  V30 12 C 0.223998 -0.159112 -0.533323 0
M  V30 13 C 0.159625 1.149967 0.198282 0
M  V30 14 C 1.540826 1.551801 0.595038 0
M  V30 15 C 2.188902 0.371603 1.263127 0
M  V30 16 C -0.798124 1.209152 1.358604 0
M  V30 17 N -1.830617 1.597013 0.389759 0
M  V30 18 C -3.241533 1.466687 0.257720 0
M  V30 19 C -3.972816 1.962375 -0.827873 0
M  V30 20 C -5.355037 1.789656 -0.875856 0
M  V30 21 N -5.992511 1.150000 0.113340 0
M  V30 22 C -5.296059 0.670943 1.159829 0
M  V30 23 C -3.920231 0.811269 1.264647 0
M  V30 24 C -0.740170 2.189638 -0.396019 0
M  V30 25 H 1.363046 -4.191894 1.368890 0
M  V30 26 H 2.727760 -5.813072 0.184002 0
M  V30 27 H 5.175357 -5.421677 0.017660 0
M  V30 28 H 6.139672 -3.402078 1.059691 0
M  V30 29 H 4.670971 -1.754885 2.276982 0
M  V30 30 H 0.983732 -2.110679 0.100070 0
M  V30 31 H -0.499188 -1.525542 0.916430 0
M  V30 32 H 1.056214 -0.126620 -1.245449 0
M  V30 33 H -0.714767 -0.389944 -1.074485 0
M  V30 34 H 1.478761 2.452787 1.241840 0
M  V30 35 H 2.113586 1.846805 -0.330109 0
M  V30 36 H 3.031786 -0.018561 0.655200 0
M  V30 37 H 2.619309 0.737938 2.223806 0
M  V30 38 H -0.546525 2.017277 2.077914 0
M  V30 39 H -0.994421 0.274151 1.901869 0
M  V30 40 H -3.437632 2.465043 -1.596295 0
M  V30 41 H -5.848089 2.194830 -1.735959 0
M  V30 42 H -5.747101 0.136157 2.008175 0
M  V30 43 H -3.358297 0.419049 2.119292 0
M  V30 44 H -0.503618 3.231314 -0.181986 0
M  V30 45 H -0.864630 2.022234 -1.486096 0
M  V30 END ATOM
M  V30 BEGIN BOND
M  V30 1 2 1 2
M  V30 2 2 2 3
M  V30 3 1 2 4
M  V30 4 2 4 5
M  V30 5 1 5 6
M  V30 6 2 6 7
M  V30 7 1 7 8
M  V30 8 2 8 9
M  V30 9 1 2 10
M  V30 10 1 10 11
M  V30 11 1 11 12
M  V30 12 1 12 13
M  V30 13 1 13 14
M  V30 14 1 14 15
M  V30 15 1 13 16
M  V30 16 1 16 17
M  V30 17 1 17 18
M  V30 18 2 18 19
M  V30 19 1 19 20
M  V30 20 2 20 21
M  V30 21 1 21 22
M  V30 22 2 22 23
M  V30 23 1 17 24
M  V30 24 1 9 4
M  V30 25 1 15 10
M  V30 26 1 23 18
M  V30 27 1 24 13
M  V30 28 1 5 25
M  V30 29 1 6 26
M  V30 30 1 7 27
M  V30 31 1 8 28
M  V30 32 1 9 29
M  V30 33 1 11 30
M  V30 34 1 11 31
M  V30 35 1 12 32
M  V30 36 1 12 33
M  V30 37 1 14 34
M  V30 38 1 14 35
M  V30 39 1 15 36
M  V30 40 1 15 37
M  V30 41 1 16 38
M  V30 42 1 16 39
M  V30 43 1 19 40
M  V30 44 1 20 41
M  V30 45 1 22 42
M  V30 46 1 23 43
M  V30 47 1 24 44
M  V30 48 1 24 45
M  V30 END BOND
M  V30 END CTAB
M  END
>  <Dataset>  (207) 
ChEMBL_Kinases

>  <Ligand_Instance>  (207) 
nan

>  <PDB_ID>  (207) 
nan

>  <Standardized_SMILES>  (207) 
O=S(=O)(c1ccccc1)N1CCC2(CC1)CN(c1ccncc1)C2

>  <Name>  (207) 
nan

>  <Pocket>  (207) 
nan

>  <ATP_Site>  (207) 
nan

>  <Peripheral>  (207) 
nan

>  <Num_H_Atoms_ProtBoundConf>  (207) 
nan

>  <Num_Resolved_Atoms>  (207) 
nan

>  <Num_Not_Resolved_Atoms>  (207) 
nan

$$$$
CHEMBL1592064
     RDKit          3D

  0  0  0  0  0  0  0  0  0  0999 V3000
M  V30 BEGIN CTAB
M  V30 COUNTS 117 125 0 0 0
M  V30 BEGIN ATOM
M  V30 1 C 7.318022 0.531961 -2.997970 0
M  V30 2 C 5.965925 -0.081949 -2.708046 0
M  V30 3 C 4.848085 0.947181 -2.692506 0 CFG=1
M  V30 4 O 4.885702 1.504989 -4.004103 0
M  V30 5 C 3.497604 0.269811 -2.620594 0
M  V30 6 C 2.741665 1.036936 -1.521956 0
M  V30 7 C 3.647178 0.902654 -0.342262 0
M  V30 8 N 4.540661 1.991004 -0.446299 0
M  V30 9 C 4.208641 3.210505 0.166776 0
M  V30 10 C 2.804533 3.671421 0.248644 0
M  V30 11 C 1.866421 2.843276 1.008721 0
M  V30 12 C 0.881027 1.987039 0.608151 0
M  V30 13 N 0.329134 1.480123 1.761433 0
M  V30 14 C 0.896949 1.956264 2.864852 0
M  V30 15 C 0.678961 1.738087 4.209686 0
M  V30 16 C 1.431039 2.378235 5.169004 0
M  V30 17 C 2.418404 3.251794 4.775560 0
M  V30 18 C 2.599945 3.438159 3.425522 0
M  V30 19 C 1.853973 2.804388 2.419838 0
M  V30 20 C 0.442074 1.621664 -0.738057 0 CFG=2
M  V30 21 C 0.194387 2.803698 -1.607519 0
M  V30 22 O 0.073575 3.979985 -2.025666 0
M  V30 23 O -0.156183 2.347674 -2.865821 0
M  V30 24 C -0.448649 3.254067 -3.909520 0
M  V30 25 C -0.922824 0.949270 -0.707201 0
M  V30 26 C -1.238761 -0.307695 -1.138604 0
M  V30 27 C -2.488070 -0.829824 -1.074951 0
M  V30 28 C -3.495970 -0.012915 -0.530703 0
M  V30 29 C -3.201834 1.280966 -0.079903 0
M  V30 30 C -1.904832 1.787784 -0.160103 0
M  V30 31 O -1.642515 3.072545 0.294193 0
M  V30 32 C -2.692042 3.849011 0.831444 0
M  V30 33 N -4.718694 -0.784957 -0.568994 0
M  V30 34 C -6.039617 -0.154117 -0.706987 0
M  V30 35 C -4.219139 -2.164444 -0.440867 0
M  V30 36 C -3.615122 -2.305374 0.913863 0 CFG=1
M  V30 37 O -3.448019 -1.037049 1.496203 0
M  V30 38 C -4.664940 -2.943031 1.786797 0
M  V30 39 O -5.203133 -4.097340 1.718759 0
M  V30 40 O -5.270487 -2.354767 2.886491 0
M  V30 41 C -6.240241 -2.973355 3.674074 0
M  V30 42 C -2.320310 -3.031893 1.003968 0
M  V30 43 O -2.278806 -3.732432 2.225831 0
M  V30 44 C -1.387568 -3.423818 3.245158 0
M  V30 45 C -1.473859 -4.267062 4.482971 0
M  V30 46 O -0.567099 -2.496086 3.126314 0
M  V30 47 C -1.909794 -3.846850 -0.154942 0 CFG=2
M  V30 48 C -2.410612 -5.263418 -0.036954 0
M  V30 49 C -1.933678 -6.028840 1.143178 0
M  V30 50 C -0.404757 -3.982106 -0.257881 0
M  V30 51 C 0.374120 -4.043096 -1.334465 0
M  V30 52 C -0.428224 -3.959072 -2.613701 0
M  V30 53 N -1.338503 -2.893602 -2.395794 0
M  V30 54 C -2.194231 -2.548808 -3.518955 0
M  V30 55 C -3.494094 -2.009291 -2.889290 0
M  V30 56 C -3.124153 -2.076847 -1.437448 0 CFG=1
M  V30 57 C -2.349349 -3.328876 -1.473204 0
M  V30 58 C 1.346731 0.608205 -1.366522 0
M  V30 59 C 5.066625 2.082272 -1.770211 0
M  V30 60 H 7.318868 1.200222 -3.874619 0
M  V30 61 H 7.793323 0.981086 -2.099616 0
M  V30 62 H 8.015369 -0.310751 -3.285135 0
M  V30 63 H 6.081428 -0.635311 -1.767177 0
M  V30 64 H 5.773804 -0.770046 -3.576277 0
M  V30 65 H 5.566339 2.219429 -3.966838 0
M  V30 66 H 3.684949 -0.775116 -2.288450 0
M  V30 67 H 2.896218 0.338524 -3.524270 0
M  V30 68 H 2.716642 2.046700 -1.988902 0
M  V30 69 H 3.180380 0.847155 0.646219 0
M  V30 70 H 4.254800 -0.052527 -0.375644 0
M  V30 71 H 4.803461 4.017048 -0.309861 0
M  V30 72 H 4.586776 3.185647 1.228773 0
M  V30 73 H 2.401297 4.048492 -0.728795 0
M  V30 74 H 2.904315 4.680100 0.770906 0
M  V30 75 H -0.470013 0.775832 1.857625 0
M  V30 76 H -0.083096 1.062757 4.550579 0
M  V30 77 H 1.279126 2.223600 6.229128 0
M  V30 78 H 3.015215 3.760472 5.489938 0
M  V30 79 H 3.377954 4.125968 3.141496 0
M  V30 80 H -0.788349 2.720915 -4.828500 0
M  V30 81 H 0.405681 3.921421 -4.113134 0
M  V30 82 H -1.310593 3.890803 -3.624307 0
M  V30 83 H -0.444338 -0.876267 -1.535981 0
M  V30 84 H -3.989116 1.893749 0.334733 0
M  V30 85 H -3.076822 3.330434 1.718017 0
M  V30 86 H -2.403903 4.889381 1.018008 0
M  V30 87 H -3.561104 3.907632 0.117238 0
M  V30 88 H -6.791521 -0.960722 -0.527526 0
M  V30 89 H -6.161092 0.556200 0.148491 0
M  V30 90 H -6.168588 0.331169 -1.676016 0
M  V30 91 H -4.990284 -2.914929 -0.674570 0
M  V30 92 H -2.523152 -0.885781 1.760560 0
M  V30 93 H -6.809539 -3.749425 3.163737 0
M  V30 94 H -5.808466 -3.413016 4.615397 0
M  V30 95 H -6.984060 -2.221705 4.048948 0
M  V30 96 H -1.488536 -2.265290 1.126444 0
M  V30 97 H -1.846485 -5.267478 4.258771 0
M  V30 98 H -2.198504 -3.801937 5.208474 0
M  V30 99 H -0.487716 -4.332449 4.946715 0
M  V30 100 H -2.111701 -5.872299 -0.944811 0
M  V30 101 H -3.537711 -5.302770 -0.088254 0
M  V30 102 H -0.965508 -5.673122 1.519662 0
M  V30 103 H -2.693596 -5.983008 1.948204 0
M  V30 104 H -1.886005 -7.137523 0.897388 0
M  V30 105 H 0.043151 -4.031588 0.731378 0
M  V30 106 H 1.435454 -4.140602 -1.157886 0
M  V30 107 H -0.947213 -4.908776 -2.818158 0
M  V30 108 H 0.242700 -3.691410 -3.462357 0
M  V30 109 H -2.459717 -3.447833 -4.106400 0
M  V30 110 H -1.777561 -1.730355 -4.134394 0
M  V30 111 H -4.324212 -2.728458 -3.063079 0
M  V30 112 H -3.739072 -1.002121 -3.242334 0
M  V30 113 H -2.964496 -4.061406 -2.036144 0
M  V30 114 H 0.991087 0.270763 -2.363236 0
M  V30 115 H 1.309853 -0.293252 -0.705034 0
M  V30 116 H 4.839444 3.069061 -2.256777 0
M  V30 117 H 6.189677 2.139439 -1.632262 0
M  V30 END ATOM
M  V30 BEGIN BOND
M  V30 1 1 1 2
M  V30 2 1 2 3
M  V30 3 1 3 4 CFG=3
M  V30 4 1 3 5
M  V30 5 1 5 6
M  V30 6 1 6 7
M  V30 7 1 7 8
M  V30 8 1 8 9
M  V30 9 1 9 10
M  V30 10 1 10 11
M  V30 11 2 11 12
M  V30 12 1 12 13
M  V30 13 1 13 14
M  V30 14 2 14 15
M  V30 15 1 15 16
M  V30 16 2 16 17
M  V30 17 1 17 18
M  V30 18 2 18 19
M  V30 19 1 12 20
M  V30 20 1 20 21 CFG=3
M  V30 21 2 21 22
M  V30 22 1 21 23
M  V30 23 1 23 24
M  V30 24 1 20 25
M  V30 25 2 25 26
M  V30 26 1 26 27
M  V30 27 2 27 28
M  V30 28 1 28 29
M  V30 29 2 29 30
M  V30 30 1 30 31
M  V30 31 1 31 32
M  V30 32 1 28 33
M  V30 33 1 33 34
M  V30 34 1 33 35
M  V30 35 1 35 36
M  V30 36 1 36 37 CFG=1
M  V30 37 1 36 38
M  V30 38 2 38 39
M  V30 39 1 38 40
M  V30 40 1 40 41
M  V30 41 1 36 42
M  V30 42 1 42 43
M  V30 43 1 43 44
M  V30 44 1 44 45
M  V30 45 2 44 46
M  V30 46 1 42 47
M  V30 47 1 47 48 CFG=1
M  V30 48 1 48 49
M  V30 49 1 47 50
M  V30 50 2 50 51
M  V30 51 1 51 52
M  V30 52 1 52 53
M  V30 53 1 53 54
M  V30 54 1 54 55
M  V30 55 1 56 55 CFG=3
M  V30 56 1 56 57
M  V30 57 1 20 58
M  V30 58 1 8 59
M  V30 59 1 59 3
M  V30 60 1 58 6
M  V30 61 1 19 11
M  V30 62 1 30 25
M  V30 63 1 56 35
M  V30 64 1 19 14
M  V30 65 1 56 27
M  V30 66 1 57 47
M  V30 67 1 57 53
M  V30 68 1 1 60
M  V30 69 1 1 61
M  V30 70 1 1 62
M  V30 71 1 2 63
M  V30 72 1 2 64
M  V30 73 1 4 65
M  V30 74 1 5 66
M  V30 75 1 5 67
M  V30 76 1 6 68
M  V30 77 1 7 69
M  V30 78 1 7 70
M  V30 79 1 9 71
M  V30 80 1 9 72
M  V30 81 1 10 73
M  V30 82 1 10 74
M  V30 83 1 13 75
M  V30 84 1 15 76
M  V30 85 1 16 77
M  V30 86 1 17 78
M  V30 87 1 18 79
M  V30 88 1 24 80
M  V30 89 1 24 81
M  V30 90 1 24 82
M  V30 91 1 26 83
M  V30 92 1 29 84
M  V30 93 1 32 85
M  V30 94 1 32 86
M  V30 95 1 32 87
M  V30 96 1 34 88
M  V30 97 1 34 89
M  V30 98 1 34 90
M  V30 99 1 35 91
M  V30 100 1 37 92
M  V30 101 1 41 93
M  V30 102 1 41 94
M  V30 103 1 41 95
M  V30 104 1 42 96
M  V30 105 1 45 97
M  V30 106 1 45 98
M  V30 107 1 45 99
M  V30 108 1 48 100
M  V30 109 1 48 101
M  V30 110 1 49 102
M  V30 111 1 49 103
M  V30 112 1 49 104
M  V30 113 1 50 105
M  V30 114 1 51 106
M  V30 115 1 52 107
M  V30 116 1 52 108
M  V30 117 1 54 109
M  V30 118 1 54 110
M  V30 119 1 55 111
M  V30 120 1 55 112
M  V30 121 1 57 113
M  V30 122 1 58 114
M  V30 123 1 58 115
M  V30 124 1 59 116
M  V30 125 1 59 117
M  V30 END BOND
M  V30 END CTAB
M  END
>  <Dataset>  (208) 
ChEMBL_Kinases

>  <Ligand_Instance>  (208) 
nan

>  <PDB_ID>  (208) 
nan

>  <Standardized_SMILES>  (208) 
CC[C@@]1(O)CC2CN(CCc3c([nH]c4ccccc34)[C@](C(=O)OC)(c3cc4c(cc3OC)N(C)C3[C@@](O)(C(=O)OC)C(OC(C)=O)[C@]5(CC)C=CCN6CC[C@@]43C65)C2)C1

>  <Name>  (208) 
nan

>  <Pocket>  (208) 
nan

>  <ATP_Site>  (208) 
nan

>  <Peripheral>  (208) 
nan

>  <Num_H_Atoms_ProtBoundConf>  (208) 
nan

>  <Num_Resolved_Atoms>  (208) 
nan

>  <Num_Not_Resolved_Atoms>  (208) 
nan

$$$$
CHEMBL1592323
     RDKit          3D

  0  0  0  0  0  0  0  0  0  0999 V3000
M  V30 BEGIN CTAB
M  V30 COUNTS 82 86 0 0 0
M  V30 BEGIN ATOM
M  V30 1 C 0.457393 2.550120 9.013922 0
M  V30 2 O 0.187854 2.495599 7.631712 0
M  V30 3 C 0.616635 1.471894 6.805310 0
M  V30 4 O 1.273738 0.599144 7.427569 0
M  V30 5 C 0.374371 1.351819 5.372568 0
M  V30 6 C 0.904151 0.237108 4.756687 0
M  V30 7 C 0.677671 0.121571 3.403583 0
M  V30 8 C -0.023421 1.008405 2.617875 0
M  V30 9 C -0.302285 0.900935 1.163219 0
M  V30 10 N -1.531734 1.643128 0.871441 0
M  V30 11 C -1.403650 2.834412 0.068139 0
M  V30 12 O -0.326628 3.247217 -0.377125 0
M  V30 13 O -2.550556 3.511530 -0.188952 0
M  V30 14 C -2.711733 4.695168 -0.934857 0
M  V30 15 C -2.275459 4.581360 -2.345637 0
M  V30 16 C -1.053154 4.874632 -2.903123 0
M  V30 17 C -0.828483 4.694371 -4.252138 0
M  V30 18 C -1.792813 4.218828 -5.114309 0
M  V30 19 C -3.050456 3.908250 -4.589230 0
M  V30 20 C -3.232894 4.101678 -3.243306 0
M  V30 21 C -0.601617 -0.489769 0.725197 0
M  V30 22 C -0.950568 -1.588694 1.271391 0
M  V30 23 C -1.317516 -2.924129 1.548046 0 CFG=1
M  V30 24 C -2.772718 -3.042141 2.098575 0
M  V30 25 C -1.203694 -4.010379 0.544690 0
M  V30 26 O -1.846667 -4.671436 -0.342709 0
M  V30 27 N 0.119781 -4.620975 0.503229 0
M  V30 28 C 0.608805 -5.705781 -0.304417 0
M  V30 29 C 0.650023 -5.537148 -1.764263 0
M  V30 30 C 1.544408 -4.459576 -2.240113 0
M  V30 31 C 1.466001 -3.177374 -2.744091 0
M  V30 32 N 2.689667 -2.689002 -3.006554 0
M  V30 33 C 3.588414 -3.634169 -2.682652 0
M  V30 34 C 4.957035 -3.530328 -2.801628 0
M  V30 35 C 5.738651 -4.599898 -2.422262 0
M  V30 36 C 5.112395 -5.729399 -1.939382 0
M  V30 37 C 3.755923 -5.820385 -1.826622 0
M  V30 38 C 2.918077 -4.764817 -2.196914 0
M  V30 39 C -0.841180 -0.739191 -0.687611 0
M  V30 40 C -0.085371 0.029851 -1.532858 0
M  V30 41 C -0.319575 -0.033674 -2.888500 0
M  V30 42 C -1.260822 -0.808080 -3.526982 0
M  V30 43 N -2.004602 -1.567751 -2.665468 0
M  V30 44 C -1.773497 -1.501746 -1.348235 0
M  V30 45 C -0.517115 2.095666 3.322495 0
M  V30 46 C -0.346177 2.312435 4.695095 0
M  V30 47 H 1.187515 1.789770 9.343665 0
M  V30 48 H 0.751649 3.528013 9.393278 0
M  V30 49 H -0.503712 2.271943 9.534389 0
M  V30 50 H 1.476545 -0.534039 5.273104 0
M  V30 51 H 1.114858 -0.754785 2.911736 0
M  V30 52 H 0.546471 1.323979 0.642821 0
M  V30 53 H -2.448969 1.308034 1.237688 0
M  V30 54 H -2.120134 5.541670 -0.488636 0
M  V30 55 H -3.781888 5.023610 -0.941430 0
M  V30 56 H -0.316071 5.249135 -2.218066 0
M  V30 57 H 0.174406 4.957228 -4.590645 0
M  V30 58 H -1.594206 4.086643 -6.155032 0
M  V30 59 H -3.803677 3.540999 -5.242167 0
M  V30 60 H -4.226618 3.843811 -2.898766 0
M  V30 61 H -1.076092 -1.172534 2.324237 0
M  V30 62 H -0.736360 -3.281196 2.487810 0
M  V30 63 H -2.785093 -2.547316 3.077678 0
M  V30 64 H -2.965761 -4.134481 2.200838 0
M  V30 65 H -3.484853 -2.664401 1.360672 0
M  V30 66 H 0.862537 -4.211305 1.166642 0
M  V30 67 H 1.586424 -6.054633 0.135942 0
M  V30 68 H -0.035146 -6.638903 -0.132988 0
M  V30 69 H 0.909026 -6.479248 -2.242609 0
M  V30 70 H -0.404935 -5.318127 -2.105269 0
M  V30 71 H 0.416956 -2.927351 -2.784375 0
M  V30 72 H 2.705092 -1.718956 -3.392585 0
M  V30 73 H 5.440558 -2.658194 -3.174502 0
M  V30 74 H 6.818018 -4.628792 -2.470985 0
M  V30 75 H 5.698472 -6.597367 -1.628512 0
M  V30 76 H 3.260531 -6.689444 -1.454741 0
M  V30 77 H 0.721379 0.718079 -1.249764 0
M  V30 78 H 0.277363 0.566886 -3.562332 0
M  V30 79 H -1.393637 -0.812173 -4.592940 0
M  V30 80 H -2.444066 -2.082751 -0.765500 0
M  V30 81 H -1.088525 2.872561 2.825293 0
M  V30 82 H -0.761047 3.185193 5.178969 0
M  V30 END ATOM
M  V30 BEGIN BOND
M  V30 1 1 1 2
M  V30 2 1 2 3
M  V30 3 2 3 4
M  V30 4 1 3 5
M  V30 5 2 5 6
M  V30 6 1 6 7
M  V30 7 2 7 8
M  V30 8 1 8 9
M  V30 9 1 9 10
M  V30 10 1 10 11
M  V30 11 2 11 12
M  V30 12 1 11 13
M  V30 13 1 13 14
M  V30 14 1 14 15
M  V30 15 2 15 16
M  V30 16 1 16 17
M  V30 17 2 17 18
M  V30 18 1 18 19
M  V30 19 2 19 20
M  V30 20 1 9 21
M  V30 21 2 21 22
M  V30 22 1 22 23
M  V30 23 1 23 24
M  V30 24 1 23 25
M  V30 25 2 25 26
M  V30 26 1 25 27
M  V30 27 1 27 28
M  V30 28 1 28 29
M  V30 29 1 29 30
M  V30 30 2 30 31
M  V30 31 1 31 32
M  V30 32 1 32 33
M  V30 33 2 33 34
M  V30 34 1 34 35
M  V30 35 2 35 36
M  V30 36 1 36 37
M  V30 37 2 37 38
M  V30 38 1 21 39
M  V30 39 2 39 40
M  V30 40 1 40 41
M  V30 41 2 41 42
M  V30 42 1 42 43
M  V30 43 2 43 44
M  V30 44 1 8 45
M  V30 45 2 45 46
M  V30 46 1 46 5
M  V30 47 1 20 15
M  V30 48 1 38 30
M  V30 49 1 44 39
M  V30 50 1 38 33
M  V30 51 1 1 47
M  V30 52 1 1 48
M  V30 53 1 1 49
M  V30 54 1 6 50
M  V30 55 1 7 51
M  V30 56 1 9 52
M  V30 57 1 10 53
M  V30 58 1 14 54
M  V30 59 1 14 55
M  V30 60 1 16 56
M  V30 61 1 17 57
M  V30 62 1 18 58
M  V30 63 1 19 59
M  V30 64 1 20 60
M  V30 65 1 22 61
M  V30 66 1 23 62 CFG=1
M  V30 67 1 24 63
M  V30 68 1 24 64
M  V30 69 1 24 65
M  V30 70 1 27 66
M  V30 71 1 28 67
M  V30 72 1 28 68
M  V30 73 1 29 69
M  V30 74 1 29 70
M  V30 75 1 31 71
M  V30 76 1 32 72
M  V30 77 1 34 73
M  V30 78 1 35 74
M  V30 79 1 36 75
M  V30 80 1 37 76
M  V30 81 1 40 77
M  V30 82 1 41 78
M  V30 83 1 42 79
M  V30 84 1 44 80
M  V30 85 1 45 81
M  V30 86 1 46 82
M  V30 END BOND
M  V30 END CTAB
M  END
>  <Dataset>  (209) 
ChEMBL_Kinases

>  <Ligand_Instance>  (209) 
nan

>  <PDB_ID>  (209) 
nan

>  <Standardized_SMILES>  (209) 
COC(=O)c1ccc(C(NC(=O)OCc2ccccc2)/C(=C/[C@@H](C)C(=O)NCCc2c[nH]c3ccccc23)c2cccnc2)cc1

>  <Name>  (209) 
nan

>  <Pocket>  (209) 
nan

>  <ATP_Site>  (209) 
nan

>  <Peripheral>  (209) 
nan

>  <Num_H_Atoms_ProtBoundConf>  (209) 
nan

>  <Num_Resolved_Atoms>  (209) 
nan

>  <Num_Not_Resolved_Atoms>  (209) 
nan

$$$$
CHEMBL1592327
     RDKit          3D

  0  0  0  0  0  0  0  0  0  0999 V3000
M  V30 BEGIN CTAB
M  V30 COUNTS 37 39 0 0 0
M  V30 BEGIN ATOM
M  V30 1 C -0.800857 -1.592088 2.820858 0
M  V30 2 C 0.264132 -2.587231 2.573841 0
M  V30 3 C 0.276077 -3.816862 3.197115 0
M  V30 4 C 1.267381 -4.748127 2.970221 0
M  V30 5 C 2.259133 -4.420277 2.096090 0
M  V30 6 C 2.240688 -3.192364 1.478320 0
M  V30 7 C 1.250005 -2.225402 1.686420 0
M  V30 8 C 1.353207 -0.961778 0.963134 0
M  V30 9 C 2.647430 -0.428365 0.985712 0
M  V30 10 C 2.947174 0.766079 0.354691 0
M  V30 11 C 1.971377 1.472345 -0.320880 0
M  V30 12 N 2.177242 2.639738 -0.960466 0
M  V30 13 C 1.152885 3.265526 -1.600976 0
M  V30 14 N -0.095253 2.727195 -1.608544 0
M  V30 15 C -0.348428 1.557717 -0.980129 0
M  V30 16 N -1.684848 1.051229 -1.029751 0
M  V30 17 C -2.655136 0.742314 0.003391 0
M  V30 18 C -2.075249 0.828215 -2.409047 0
M  V30 19 C 0.703000 0.929052 -0.330811 0
M  V30 20 C 0.387993 -0.246084 0.284726 0
M  V30 21 H -0.487195 -0.551974 2.708893 0
M  V30 22 H -1.095369 -1.720786 3.887564 0
M  V30 23 H -1.668112 -1.809653 2.162826 0
M  V30 24 H -0.566880 -3.986976 3.884335 0
M  V30 25 H 1.231107 -5.697770 3.483944 0
M  V30 26 H 3.034252 -5.138536 1.913585 0
M  V30 27 H 3.062753 -2.997264 0.793133 0
M  V30 28 H 3.493923 -0.901518 1.488869 0
M  V30 29 H 3.947973 1.180525 0.370973 0
M  V30 30 H 1.339341 4.216878 -2.117299 0
M  V30 31 H -3.490033 1.471280 -0.128589 0
M  V30 32 H -2.237219 0.883440 1.006182 0
M  V30 33 H -3.073689 -0.277078 -0.089590 0
M  V30 34 H -1.325823 0.248199 -2.982915 0
M  V30 35 H -2.175678 1.812180 -2.952136 0
M  V30 36 H -3.050788 0.281355 -2.478797 0
M  V30 37 H -0.578867 -0.729561 0.318076 0
M  V30 END ATOM
M  V30 BEGIN BOND
M  V30 1 1 1 2
M  V30 2 2 2 3
M  V30 3 1 3 4
M  V30 4 2 4 5
M  V30 5 1 5 6
M  V30 6 2 6 7
M  V30 7 1 7 8
M  V30 8 2 8 9
M  V30 9 1 9 10
M  V30 10 2 10 11
M  V30 11 1 11 12
M  V30 12 2 12 13
M  V30 13 1 13 14
M  V30 14 2 14 15
M  V30 15 1 15 16
M  V30 16 1 16 17
M  V30 17 1 16 18
M  V30 18 1 15 19
M  V30 19 2 19 20
M  V30 20 1 7 2
M  V30 21 1 20 8
M  V30 22 1 19 11
M  V30 23 1 1 21
M  V30 24 1 1 22
M  V30 25 1 1 23
M  V30 26 1 3 24
M  V30 27 1 4 25
M  V30 28 1 5 26
M  V30 29 1 6 27
M  V30 30 1 9 28
M  V30 31 1 10 29
M  V30 32 1 13 30
M  V30 33 1 17 31
M  V30 34 1 17 32
M  V30 35 1 17 33
M  V30 36 1 18 34
M  V30 37 1 18 35
M  V30 38 1 18 36
M  V30 39 1 20 37
M  V30 END BOND
M  V30 END CTAB
M  END
>  <Dataset>  (210) 
ChEMBL_Kinases

>  <Ligand_Instance>  (210) 
nan

>  <PDB_ID>  (210) 
nan

>  <Standardized_SMILES>  (210) 
Cc1ccccc1-c1ccc2ncnc(N(C)C)c2c1

>  <Name>  (210) 
nan

>  <Pocket>  (210) 
nan

>  <ATP_Site>  (210) 
nan

>  <Peripheral>  (210) 
nan

>  <Num_H_Atoms_ProtBoundConf>  (210) 
nan

>  <Num_Resolved_Atoms>  (210) 
nan

>  <Num_Not_Resolved_Atoms>  (210) 
nan

$$$$
CHEMBL159233
     RDKit          3D

  0  0  0  0  0  0  0  0  0  0999 V3000
M  V30 BEGIN CTAB
M  V30 COUNTS 62 63 0 0 0
M  V30 BEGIN ATOM
M  V30 1 C 1.928286 -2.861661 6.502254 0
M  V30 2 C 1.697277 -4.182844 5.881226 0
M  V30 3 C 1.363256 -4.252700 4.436219 0
M  V30 4 C 2.352670 -3.706369 3.488835 0
M  V30 5 C 2.644052 -2.260516 3.499831 0
M  V30 6 C 1.457680 -1.373014 3.131328 0
M  V30 7 C 1.810857 0.070238 3.184766 0
M  V30 8 C 0.711687 0.977572 2.847822 0
M  V30 9 C 0.104473 1.087754 1.525814 0
M  V30 10 C -0.515362 -0.090881 0.857859 0
M  V30 11 C -1.174257 0.369970 -0.469116 0 CFG=1
M  V30 12 C -0.090801 0.911695 -1.319243 0
M  V30 13 O 1.171908 0.724935 -1.218360 0
M  V30 14 N -0.229368 1.781722 -2.468983 0
M  V30 15 C -1.070632 2.201089 -3.533655 0 CFG=2
M  V30 16 C -1.344261 3.709113 -3.499140 0
M  V30 17 O -1.963406 4.115637 -2.340286 0
M  V30 18 C -2.344100 1.455360 -3.733034 0
M  V30 19 C -2.251711 -0.010957 -3.591609 0
M  V30 20 C -2.455695 -0.521904 -4.882157 0
M  V30 21 C -2.435368 -1.886401 -5.084205 0
M  V30 22 C -2.224751 -2.807782 -4.090425 0
M  V30 23 C -2.020576 -2.340331 -2.810608 0
M  V30 24 C -2.034303 -0.953885 -2.564816 0
M  V30 25 N -1.803080 -0.740617 -1.148236 0
M  V30 26 C -2.349238 -1.882718 -0.452969 0
M  V30 27 H 1.581634 -2.914849 7.594325 0
M  V30 28 H 3.034551 -2.641017 6.646507 0
M  V30 29 H 1.378997 -2.053609 6.025815 0
M  V30 30 H 2.598869 -4.855486 6.084730 0
M  V30 31 H 0.876529 -4.684403 6.497727 0
M  V30 32 H 0.315536 -3.902359 4.238132 0
M  V30 33 H 1.285862 -5.363597 4.198797 0
M  V30 34 H 2.137873 -4.083589 2.455822 0
M  V30 35 H 3.337683 -4.224342 3.730886 0
M  V30 36 H 3.379233 -2.076515 2.658399 0
M  V30 37 H 3.143098 -1.948224 4.417030 0
M  V30 38 H 0.676872 -1.555153 3.914870 0
M  V30 39 H 1.009126 -1.672943 2.200962 0
M  V30 40 H 2.177220 0.241342 4.256839 0
M  V30 41 H 2.758478 0.291512 2.608042 0
M  V30 42 H 1.089417 2.038035 3.121473 0
M  V30 43 H -0.158308 0.863990 3.598269 0
M  V30 44 H 0.786602 1.605414 0.792556 0
M  V30 45 H -0.761528 1.856327 1.585798 0
M  V30 46 H -1.162925 -0.705092 1.458960 0
M  V30 47 H 0.337840 -0.719423 0.452660 0
M  V30 48 H -1.925117 1.155289 -0.241141 0
M  V30 49 H 0.628309 2.393201 -2.653273 0
M  V30 50 H -0.512100 2.080172 -4.511268 0
M  V30 51 H -0.397083 4.230229 -3.710634 0
M  V30 52 H -2.057620 3.881677 -4.336557 0
M  V30 53 H -1.373740 3.880996 -1.557224 0
M  V30 54 H -2.814471 1.662127 -4.724003 0
M  V30 55 H -3.084766 1.894239 -3.000874 0
M  V30 56 H -2.632746 0.142262 -5.743239 0
M  V30 57 H -2.597773 -2.236167 -6.095044 0
M  V30 58 H -2.203101 -3.870961 -4.213659 0
M  V30 59 H -1.834300 -2.910414 -1.912397 0
M  V30 60 H -1.666712 -2.549535 0.045429 0
M  V30 61 H -2.768051 -1.349301 0.471099 0
M  V30 62 H -3.319803 -2.254577 -0.821222 0
M  V30 END ATOM
M  V30 BEGIN BOND
M  V30 1 1 1 2
M  V30 2 1 2 3
M  V30 3 1 3 4
M  V30 4 1 4 5
M  V30 5 1 5 6
M  V30 6 1 6 7
M  V30 7 1 7 8
M  V30 8 1 8 9
M  V30 9 1 9 10
M  V30 10 1 10 11
M  V30 11 1 11 12
M  V30 12 2 12 13
M  V30 13 1 12 14
M  V30 14 1 14 15
M  V30 15 1 15 16
M  V30 16 1 16 17
M  V30 17 1 15 18
M  V30 18 1 18 19
M  V30 19 2 19 20
M  V30 20 1 20 21
M  V30 21 2 21 22
M  V30 22 1 22 23
M  V30 23 2 23 24
M  V30 24 1 24 25
M  V30 25 1 25 26
M  V30 26 1 25 11
M  V30 27 1 24 19
M  V30 28 1 1 27
M  V30 29 1 1 28
M  V30 30 1 1 29
M  V30 31 1 2 30
M  V30 32 1 2 31
M  V30 33 1 3 32
M  V30 34 1 3 33
M  V30 35 1 4 34
M  V30 36 1 4 35
M  V30 37 1 5 36
M  V30 38 1 5 37
M  V30 39 1 6 38
M  V30 40 1 6 39
M  V30 41 1 7 40
M  V30 42 1 7 41
M  V30 43 1 8 42
M  V30 44 1 8 43
M  V30 45 1 9 44
M  V30 46 1 9 45
M  V30 47 1 10 46
M  V30 48 1 10 47
M  V30 49 1 11 48 CFG=1
M  V30 50 1 14 49
M  V30 51 1 15 50 CFG=3
M  V30 52 1 16 51
M  V30 53 1 16 52
M  V30 54 1 17 53
M  V30 55 1 18 54
M  V30 56 1 18 55
M  V30 57 1 20 56
M  V30 58 1 21 57
M  V30 59 1 22 58
M  V30 60 1 23 59
M  V30 61 1 26 60
M  V30 62 1 26 61
M  V30 63 1 26 62
M  V30 END BOND
M  V30 END CTAB
M  END
>  <Dataset>  (211) 
ChEMBL_Kinases

>  <Ligand_Instance>  (211) 
nan

>  <PDB_ID>  (211) 
nan

>  <Standardized_SMILES>  (211) 
CCCCCCCCCC[C@H]1C(=O)N[C@H](CO)Cc2ccccc2N1C

>  <Name>  (211) 
nan

>  <Pocket>  (211) 
nan

>  <ATP_Site>  (211) 
nan

>  <Peripheral>  (211) 
nan

>  <Num_H_Atoms_ProtBoundConf>  (211) 
nan

>  <Num_Resolved_Atoms>  (211) 
nan

>  <Num_Not_Resolved_Atoms>  (211) 
nan

$$$$
CHEMBL1592352
     RDKit          3D

  0  0  0  0  0  0  0  0  0  0999 V3000
M  V30 BEGIN CTAB
M  V30 COUNTS 104 107 0 0 0
M  V30 BEGIN ATOM
M  V30 1 C 0.590110 2.468476 -1.788992 0
M  V30 2 C 0.160163 1.588574 -0.918779 0
M  V30 3 C 0.426288 0.118629 -0.657069 0
M  V30 4 C 1.560765 -0.467109 -1.466099 0 CFG=1
M  V30 5 C 1.755994 -1.942200 -0.976332 0
M  V30 6 C 1.000835 -0.819584 -2.787719 0
M  V30 7 O 1.545369 -2.020222 -3.378836 0
M  V30 8 C 0.675520 -3.090685 -3.518849 0
M  V30 9 C 1.292069 -4.325100 -4.145628 0
M  V30 10 O -0.557527 -3.262637 -3.227697 0
M  V30 11 C 0.779310 0.141029 -3.874111 0
M  V30 12 C 1.942932 0.911935 -4.337864 0
M  V30 13 O 1.773605 1.555410 -5.403491 0
M  V30 14 O 3.081835 0.903322 -3.649070 0
M  V30 15 C 3.627456 0.821969 -2.404398 0 CFG=1
M  V30 16 C 4.985374 0.129449 -2.687878 0
M  V30 17 C 4.092752 2.226389 -2.052295 0
M  V30 18 O 4.639157 2.331132 -0.750132 0
M  V30 19 C 5.102768 3.514517 -0.259219 0
M  V30 20 C 5.671547 3.593961 1.130650 0
M  V30 21 O 4.914924 4.348455 -1.207302 0
M  V30 22 C 2.881338 0.148714 -1.286834 0
M  V30 23 C 3.919905 -0.546318 -0.436674 0
M  V30 24 C 4.457901 -1.830299 -0.766444 0
M  V30 25 O 4.827526 -2.944991 -1.204378 0
M  V30 26 O 5.344674 -2.343049 0.168597 0
M  V30 27 C 6.024523 -3.538219 0.140568 0
M  V30 28 C 0.466875 -0.087063 0.850469 0
M  V30 29 O 0.407016 -1.290381 1.284239 0
M  V30 30 C 0.620830 -2.374975 1.920673 0
M  V30 31 O 1.575218 -2.085446 2.667396 0
M  V30 32 C -0.862404 0.562352 1.411223 0
M  V30 33 O -1.199273 0.002324 2.606609 0
M  V30 34 C -2.280562 -0.855452 2.818543 0
M  V30 35 O -2.877008 -1.025559 1.760776 0
M  V30 36 C -2.785342 -1.536391 4.012424 0
M  V30 37 O -1.938162 -1.247515 5.076065 0
M  V30 38 C -2.684228 -3.034417 3.734226 0
M  V30 39 C -3.525030 -3.384888 2.498165 0
M  V30 40 C -3.185293 -3.835740 4.898416 0
M  V30 41 C -4.636644 -3.448675 5.126270 0
M  V30 42 C -0.698094 1.990475 1.415981 0 CFG=2
M  V30 43 C 0.658315 2.469948 1.940204 0
M  V30 44 C -1.722042 2.908039 1.967937 0
M  V30 45 C -3.126974 2.619634 1.950338 0
M  V30 46 C -4.173591 2.814469 1.073551 0
M  V30 47 C -5.378621 2.349434 1.550737 0
M  V30 48 O -5.123557 1.844280 2.756228 0
M  V30 49 C -3.825671 1.997383 2.992904 0
M  V30 50 C -1.384582 4.220345 1.232206 0
M  V30 51 C -0.630780 3.787389 0.022857 0
M  V30 52 O -0.101137 4.739722 -0.529002 0
M  V30 53 C -0.793969 2.361577 -0.075860 0
M  V30 54 O -2.075006 1.907256 -0.439433 0
M  V30 55 H 0.631802 3.425042 -2.220792 0
M  V30 56 H 1.057390 3.010458 -2.575736 0
M  V30 57 H -0.533421 -0.354572 -0.942905 0
M  V30 58 H 2.241800 -2.553218 -1.766120 0
M  V30 59 H 2.287230 -1.950519 -0.037911 0
M  V30 60 H 0.751428 -2.441325 -0.969637 0
M  V30 61 H -0.073106 -1.152538 -2.570979 0
M  V30 62 H 0.549685 -4.902616 -4.715398 0
M  V30 63 H 2.107776 -4.060506 -4.836659 0
M  V30 64 H 1.710557 -4.976015 -3.325832 0
M  V30 65 H 0.553001 -0.536586 -4.778761 0
M  V30 66 H -0.104566 0.774580 -3.860913 0
M  V30 67 H 4.890356 -0.887703 -3.013839 0
M  V30 68 H 5.350386 0.668728 -3.619834 0
M  V30 69 H 5.754967 0.385421 -1.974171 0
M  V30 70 H 3.357417 3.014623 -2.143298 0
M  V30 71 H 4.939135 2.544017 -2.720400 0
M  V30 72 H 4.885746 3.449715 1.890268 0
M  V30 73 H 6.502753 2.880075 1.252032 0
M  V30 74 H 6.098578 4.612208 1.285799 0
M  V30 75 H 2.658852 1.019385 -0.635317 0
M  V30 76 H 4.760952 0.153158 -0.313635 0
M  V30 77 H 3.556490 -0.611373 0.644768 0
M  V30 78 H 5.427889 -4.467001 0.099459 0
M  V30 79 H 6.826927 -3.506529 -0.635180 0
M  V30 80 H 6.611403 -3.591488 1.115411 0
M  V30 81 H 1.180319 0.716729 1.150053 0
M  V30 82 H 1.250923 -2.832877 2.676320 0
M  V30 83 H -1.661607 0.258432 0.660207 0
M  V30 84 H -3.815763 -1.252815 4.284793 0
M  V30 85 H -2.154836 -0.456648 5.593446 0
M  V30 86 H -1.657280 -3.336707 3.506671 0
M  V30 87 H -4.355487 -2.699295 2.330981 0
M  V30 88 H -3.884701 -4.419467 2.608426 0
M  V30 89 H -2.855275 -3.376143 1.593083 0
M  V30 90 H -2.549077 -3.592050 5.771336 0
M  V30 91 H -3.167368 -4.900064 4.626260 0
M  V30 92 H -5.054307 -2.946992 4.222464 0
M  V30 93 H -5.278332 -4.317157 5.305682 0
M  V30 94 H -4.671102 -2.789174 6.027017 0
M  V30 95 H 1.281756 2.678910 1.082580 0
M  V30 96 H 0.476632 3.468262 2.429698 0
M  V30 97 H 1.077169 1.840603 2.723410 0
M  V30 98 H -1.383753 3.094045 3.060632 0
M  V30 99 H -4.188461 3.274375 0.121733 0
M  V30 100 H -6.373333 2.338958 1.136008 0
M  V30 101 H -3.489651 1.615447 3.966150 0
M  V30 102 H -0.815732 4.917200 1.873975 0
M  V30 103 H -2.324108 4.747040 0.959820 0
M  V30 104 H -2.395840 2.446183 -1.230882 0
M  V30 END ATOM
M  V30 BEGIN BOND
M  V30 1 2 1 2
M  V30 2 1 2 3
M  V30 3 1 3 4
M  V30 4 1 4 5 CFG=1
M  V30 5 1 4 6
M  V30 6 1 6 7
M  V30 7 1 7 8
M  V30 8 1 8 9
M  V30 9 2 8 10
M  V30 10 1 6 11
M  V30 11 1 11 12
M  V30 12 2 12 13
M  V30 13 1 12 14
M  V30 14 1 14 15
M  V30 15 1 15 16 CFG=3
M  V30 16 1 15 17
M  V30 17 1 17 18
M  V30 18 1 18 19
M  V30 19 1 19 20
M  V30 20 2 19 21
M  V30 21 1 15 22
M  V30 22 1 22 23
M  V30 23 1 23 24
M  V30 24 2 24 25
M  V30 25 1 24 26
M  V30 26 1 26 27
M  V30 27 1 3 28
M  V30 28 1 28 29
M  V30 29 1 29 30
M  V30 30 2 30 31
M  V30 31 1 28 32
M  V30 32 1 32 33
M  V30 33 1 33 34
M  V30 34 2 34 35
M  V30 35 1 34 36
M  V30 36 1 36 37
M  V30 37 1 36 38
M  V30 38 1 38 39
M  V30 39 1 38 40
M  V30 40 1 40 41
M  V30 41 1 32 42
M  V30 42 1 42 43 CFG=1
M  V30 43 1 42 44
M  V30 44 1 44 45
M  V30 45 1 45 46
M  V30 46 2 46 47
M  V30 47 1 47 48
M  V30 48 1 48 49
M  V30 49 1 44 50
M  V30 50 1 50 51
M  V30 51 2 51 52
M  V30 52 1 51 53
M  V30 53 1 53 54
M  V30 54 1 53 2
M  V30 55 1 22 4
M  V30 56 1 53 42
M  V30 57 2 49 45
M  V30 58 1 1 55
M  V30 59 1 1 56
M  V30 60 1 3 57
M  V30 61 1 5 58
M  V30 62 1 5 59
M  V30 63 1 5 60
M  V30 64 1 6 61
M  V30 65 1 9 62
M  V30 66 1 9 63
M  V30 67 1 9 64
M  V30 68 1 11 65
M  V30 69 1 11 66
M  V30 70 1 16 67
M  V30 71 1 16 68
M  V30 72 1 16 69
M  V30 73 1 17 70
M  V30 74 1 17 71
M  V30 75 1 20 72
M  V30 76 1 20 73
M  V30 77 1 20 74
M  V30 78 1 22 75
M  V30 79 1 23 76
M  V30 80 1 23 77
M  V30 81 1 27 78
M  V30 82 1 27 79
M  V30 83 1 27 80
M  V30 84 1 28 81
M  V30 85 1 30 82
M  V30 86 1 32 83
M  V30 87 1 36 84
M  V30 88 1 37 85
M  V30 89 1 38 86
M  V30 90 1 39 87
M  V30 91 1 39 88
M  V30 92 1 39 89
M  V30 93 1 40 90
M  V30 94 1 40 91
M  V30 95 1 41 92
M  V30 96 1 41 93
M  V30 97 1 41 94
M  V30 98 1 43 95
M  V30 99 1 43 96
M  V30 100 1 43 97
M  V30 101 1 44 98
M  V30 102 1 46 99
M  V30 103 1 47 100
M  V30 104 1 49 101
M  V30 105 1 50 102
M  V30 106 1 50 103
M  V30 107 1 54 104
M  V30 END BOND
M  V30 END CTAB
M  END
>  <Dataset>  (212) 
ChEMBL_Kinases

>  <Ligand_Instance>  (212) 
nan

>  <PDB_ID>  (212) 
nan

>  <Standardized_SMILES>  (212) 
C=C1C([C@@]2(C)C(OC(C)=O)CC(=O)O[C@@](C)(COC(C)=O)C2CC(=O)OC)C(OC=O)C(OC(=O)C(O)C(C)CC)[C@]2(C)C(c3ccoc3)CC(=O)C12O

>  <Name>  (212) 
nan

>  <Pocket>  (212) 
nan

>  <ATP_Site>  (212) 
nan

>  <Peripheral>  (212) 
nan

>  <Num_H_Atoms_ProtBoundConf>  (212) 
nan

>  <Num_Resolved_Atoms>  (212) 
nan

>  <Num_Not_Resolved_Atoms>  (212) 
nan

$$$$
CHEMBL1591772
     RDKit          3D

  0  0  0  0  0  0  0  0  0  0999 V3000
M  V30 BEGIN CTAB
M  V30 COUNTS 44 47 0 0 0
M  V30 BEGIN ATOM
M  V30 1 C -4.314949 -1.410442 2.549932 0
M  V30 2 O -3.449541 -0.334932 2.885934 0
M  V30 3 C -2.759167 0.307328 1.854454 0
M  V30 4 C -2.860553 -0.033982 0.518087 0
M  V30 5 C -2.126382 0.676808 -0.411434 0
M  V30 6 C -1.297346 1.714961 -0.042340 0
M  V30 7 O -0.619721 2.346493 -1.047944 0
M  V30 8 C 0.637521 1.994374 -1.523018 0
M  V30 9 N 1.259735 2.662334 -2.526807 0
M  V30 10 C 2.484615 2.290355 -2.963249 0
M  V30 11 C 3.024135 1.208033 -2.317216 0
M  V30 12 N 4.258192 0.822851 -2.747419 0
M  V30 13 C 4.890672 -0.232081 -2.185271 0
M  V30 14 C 4.275898 -0.925416 -1.163032 0
M  V30 15 O 4.763739 -1.928688 -0.556405 0
M  V30 16 N 3.055057 -0.561402 -0.721881 0
M  V30 17 C 2.304550 -1.172620 0.311384 0
M  V30 18 C 1.073329 -1.713871 -0.058845 0
M  V30 19 C 0.304118 -2.321697 0.916811 0
M  V30 20 C 0.735769 -2.397271 2.234109 0
M  V30 21 O -0.086546 -3.021947 3.164731 0
M  V30 22 C 0.358658 -3.096330 4.507429 0
M  V30 23 C 1.961690 -1.850967 2.569700 0
M  V30 24 C 2.754249 -1.236895 1.619041 0
M  V30 25 C 2.423827 0.499837 -1.290579 0
M  V30 26 N 1.204445 0.936507 -0.916665 0
M  V30 27 C -1.232680 2.014372 1.302272 0
M  V30 28 C -1.940404 1.342560 2.278863 0
M  V30 29 H -4.938630 -1.605783 3.459648 0
M  V30 30 H -3.760148 -2.282074 2.188518 0
M  V30 31 H -5.036545 -1.067989 1.755329 0
M  V30 32 H -3.533101 -0.861746 0.305533 0
M  V30 33 H -2.262493 0.346163 -1.436967 0
M  V30 34 H 2.989276 2.810531 -3.757703 0
M  V30 35 H 5.877276 -0.577026 -2.495436 0
M  V30 36 H 0.696394 -1.675013 -1.087704 0
M  V30 37 H -0.647844 -2.741297 0.635540 0
M  V30 38 H 0.242872 -2.111949 5.021320 0
M  V30 39 H 1.392466 -3.436769 4.619394 0
M  V30 40 H -0.302671 -3.796928 5.057030 0
M  V30 41 H 2.316295 -1.900092 3.593897 0
M  V30 42 H 3.708308 -0.807562 1.861528 0
M  V30 43 H -0.582644 2.828967 1.595287 0
M  V30 44 H -1.843835 1.629476 3.321730 0
M  V30 END ATOM
M  V30 BEGIN BOND
M  V30 1 1 1 2
M  V30 2 1 2 3
M  V30 3 2 3 4
M  V30 4 1 4 5
M  V30 5 2 5 6
M  V30 6 1 6 7
M  V30 7 1 7 8
M  V30 8 2 8 9
M  V30 9 1 9 10
M  V30 10 2 10 11
M  V30 11 1 11 12
M  V30 12 2 12 13
M  V30 13 1 13 14
M  V30 14 2 14 15
M  V30 15 1 14 16
M  V30 16 1 16 17
M  V30 17 2 17 18
M  V30 18 1 18 19
M  V30 19 2 19 20
M  V30 20 1 20 21
M  V30 21 1 21 22
M  V30 22 1 20 23
M  V30 23 2 23 24
M  V30 24 1 16 25
M  V30 25 2 25 26
M  V30 26 1 6 27
M  V30 27 2 27 28
M  V30 28 1 28 3
M  V30 29 1 26 8
M  V30 30 1 25 11
M  V30 31 1 24 17
M  V30 32 1 1 29
M  V30 33 1 1 30
M  V30 34 1 1 31
M  V30 35 1 4 32
M  V30 36 1 5 33
M  V30 37 1 10 34
M  V30 38 1 13 35
M  V30 39 1 18 36
M  V30 40 1 19 37
M  V30 41 1 22 38
M  V30 42 1 22 39
M  V30 43 1 22 40
M  V30 44 1 23 41
M  V30 45 1 24 42
M  V30 46 1 27 43
M  V30 47 1 28 44
M  V30 END BOND
M  V30 END CTAB
M  END
>  <Dataset>  (213) 
ChEMBL_Kinases

>  <Ligand_Instance>  (213) 
nan

>  <PDB_ID>  (213) 
nan

>  <Standardized_SMILES>  (213) 
COc1ccc(Oc2ncc3ncc(=O)n(-c4ccc(OC)cc4)c3n2)cc1

>  <Name>  (213) 
nan

>  <Pocket>  (213) 
nan

>  <ATP_Site>  (213) 
nan

>  <Peripheral>  (213) 
nan

>  <Num_H_Atoms_ProtBoundConf>  (213) 
nan

>  <Num_Resolved_Atoms>  (213) 
nan

>  <Num_Not_Resolved_Atoms>  (213) 
nan

$$$$
CHEMBL1584684
     RDKit          3D

  0  0  0  0  0  0  0  0  0  0999 V3000
M  V30 BEGIN CTAB
M  V30 COUNTS 35 38 0 0 0
M  V30 BEGIN ATOM
M  V30 1 C -0.572664 -1.779026 3.006391 0
M  V30 2 C -1.672232 -1.858334 2.042388 0
M  V30 3 C -1.487685 -1.280703 0.808626 0
M  V30 4 C -0.498190 -0.547712 0.039891 0
M  V30 5 O -0.525438 -0.087048 -1.128005 0
M  V30 6 N 0.781774 -0.191880 0.510241 0
M  V30 7 C 1.870071 0.507769 -0.071789 0
M  V30 8 N 2.886669 -0.008697 -0.777278 0
M  V30 9 C 3.749516 0.938851 -1.184426 0
M  V30 10 C 4.923704 0.950222 -1.915220 0
M  V30 11 C 5.541740 2.179599 -2.130704 0
M  V30 12 C 5.052593 3.382027 -1.659340 0
M  V30 13 C 3.865554 3.357463 -0.922354 0
M  V30 14 C 3.251195 2.139801 -0.707546 0
M  V30 15 N 2.114608 1.846484 -0.039194 0
M  V30 16 O -2.619325 -1.490350 0.133165 0
M  V30 17 C -3.465370 -2.151220 0.874885 0
M  V30 18 C -4.762913 -2.612982 0.647877 0
M  V30 19 Cl -5.499568 -2.297884 -0.908582 0
M  V30 20 C -5.418123 -3.297627 1.649730 0
M  V30 21 C -4.818520 -3.540208 2.882218 0
M  V30 22 C -3.533216 -3.100450 3.150722 0
M  V30 23 C -2.927657 -2.423039 2.114382 0
M  V30 24 H 0.320532 -2.337585 2.644525 0
M  V30 25 H -0.367411 -0.733187 3.295615 0
M  V30 26 H -0.934086 -2.300810 3.932530 0
M  V30 27 H 1.099816 -0.440390 1.460273 0
M  V30 28 H 5.315899 0.022244 -2.288156 0
M  V30 29 H 6.471043 2.172933 -2.711259 0
M  V30 30 H 5.584685 4.301063 -1.864133 0
M  V30 31 H 3.452687 4.282048 -0.536990 0
M  V30 32 H 1.452089 2.498601 0.464211 0
M  V30 33 H -6.424030 -3.652256 1.465473 0
M  V30 34 H -5.328713 -4.082750 3.685654 0
M  V30 35 H -2.984873 -3.236422 4.065471 0
M  V30 END ATOM
M  V30 BEGIN BOND
M  V30 1 1 1 2
M  V30 2 2 2 3
M  V30 3 1 3 4
M  V30 4 2 4 5
M  V30 5 1 4 6
M  V30 6 1 6 7
M  V30 7 2 7 8
M  V30 8 1 8 9
M  V30 9 2 9 10
M  V30 10 1 10 11
M  V30 11 2 11 12
M  V30 12 1 12 13
M  V30 13 2 13 14
M  V30 14 1 14 15
M  V30 15 1 3 16
M  V30 16 1 16 17
M  V30 17 2 17 18
M  V30 18 1 18 19
M  V30 19 1 18 20
M  V30 20 2 20 21
M  V30 21 1 21 22
M  V30 22 2 22 23
M  V30 23 1 23 2
M  V30 24 1 15 7
M  V30 25 1 23 17
M  V30 26 1 14 9
M  V30 27 1 1 24
M  V30 28 1 1 25
M  V30 29 1 1 26
M  V30 30 1 6 27
M  V30 31 1 10 28
M  V30 32 1 11 29
M  V30 33 1 12 30
M  V30 34 1 13 31
M  V30 35 1 15 32
M  V30 36 1 20 33
M  V30 37 1 21 34
M  V30 38 1 22 35
M  V30 END BOND
M  V30 END CTAB
M  END
>  <Dataset>  (214) 
ChEMBL_Kinases

>  <Ligand_Instance>  (214) 
nan

>  <PDB_ID>  (214) 
nan

>  <Standardized_SMILES>  (214) 
Cc1c(C(=O)Nc2nc3ccccc3[nH]2)oc2c(Cl)cccc12

>  <Name>  (214) 
nan

>  <Pocket>  (214) 
nan

>  <ATP_Site>  (214) 
nan

>  <Peripheral>  (214) 
nan

>  <Num_H_Atoms_ProtBoundConf>  (214) 
nan

>  <Num_Resolved_Atoms>  (214) 
nan

>  <Num_Not_Resolved_Atoms>  (214) 
nan

$$$$
CHEMBL1584502
     RDKit          3D

  0  0  0  0  0  0  0  0  0  0999 V3000
M  V30 BEGIN CTAB
M  V30 COUNTS 38 39 0 0 0
M  V30 BEGIN ATOM
M  V30 1 C -2.464049 -2.944714 1.818261 0
M  V30 2 N -1.159788 -2.346637 2.121837 0
M  V30 3 C -0.391295 -3.421798 2.741570 0
M  V30 4 C -0.588790 -1.966218 0.845722 0
M  V30 5 C 0.750606 -1.333529 0.955614 0
M  V30 6 C 1.236830 -0.983963 -0.398957 0
M  V30 7 O 2.267256 -1.653742 -0.786253 0
M  V30 8 C 0.787749 -0.030224 -1.395510 0
M  V30 9 C -0.296131 0.809254 -1.280287 0
M  V30 10 C -0.729276 1.718422 -2.209974 0
M  V30 11 C -0.021517 1.816101 -3.384032 0
M  V30 12 C 1.075487 1.008209 -3.572055 0
M  V30 13 C 1.448147 0.120691 -2.592914 0
M  V30 14 C 0.848376 -0.167169 1.845222 0
M  V30 15 C -0.069381 0.749636 2.310760 0
M  V30 16 C 0.234053 1.800285 3.143591 0
M  V30 17 C 1.520998 1.997653 3.572203 0
M  V30 18 C 2.493724 1.119439 3.147410 0
M  V30 19 C 2.145941 0.080912 2.313371 0
M  V30 20 H -2.399300 -3.442399 0.850625 0
M  V30 21 H -3.243097 -2.166658 1.783466 0
M  V30 22 H -2.697529 -3.698191 2.583301 0
M  V30 23 H -0.490858 -4.331674 2.084106 0
M  V30 24 H 0.674968 -3.161269 2.887626 0
M  V30 25 H -0.848910 -3.680868 3.715957 0
M  V30 26 H -1.303287 -1.448569 0.192578 0
M  V30 27 H -0.409775 -2.958827 0.328502 0
M  V30 28 H 1.472464 -2.115998 1.326957 0
M  V30 29 H -0.899101 0.793072 -0.403004 0
M  V30 30 H -1.589515 2.357371 -2.072036 0
M  V30 31 H -0.293980 2.505501 -4.168714 0
M  V30 32 H 1.629987 1.084064 -4.490725 0
M  V30 33 H 2.338669 -0.478933 -2.841184 0
M  V30 34 H -1.078245 0.519335 1.930358 0
M  V30 35 H -0.601398 2.429814 3.417581 0
M  V30 36 H 1.634734 2.853581 4.221125 0
M  V30 37 H 3.483466 1.297547 3.496500 0
M  V30 38 H 3.006483 -0.550641 2.043580 0
M  V30 END ATOM
M  V30 BEGIN BOND
M  V30 1 1 1 2
M  V30 2 1 2 3
M  V30 3 1 2 4
M  V30 4 1 4 5
M  V30 5 1 5 6
M  V30 6 2 6 7
M  V30 7 1 6 8
M  V30 8 2 8 9
M  V30 9 1 9 10
M  V30 10 2 10 11
M  V30 11 1 11 12
M  V30 12 2 12 13
M  V30 13 1 5 14
M  V30 14 2 14 15
M  V30 15 1 15 16
M  V30 16 2 16 17
M  V30 17 1 17 18
M  V30 18 2 18 19
M  V30 19 1 13 8
M  V30 20 1 19 14
M  V30 21 1 1 20
M  V30 22 1 1 21
M  V30 23 1 1 22
M  V30 24 1 3 23
M  V30 25 1 3 24
M  V30 26 1 3 25
M  V30 27 1 4 26
M  V30 28 1 4 27
M  V30 29 1 5 28
M  V30 30 1 9 29
M  V30 31 1 10 30
M  V30 32 1 11 31
M  V30 33 1 12 32
M  V30 34 1 13 33
M  V30 35 1 15 34
M  V30 36 1 16 35
M  V30 37 1 17 36
M  V30 38 1 18 37
M  V30 39 1 19 38
M  V30 END BOND
M  V30 END CTAB
M  END
>  <Dataset>  (215) 
ChEMBL_Kinases

>  <Ligand_Instance>  (215) 
nan

>  <PDB_ID>  (215) 
nan

>  <Standardized_SMILES>  (215) 
CN(C)CC(C(=O)c1ccccc1)c1ccccc1

>  <Name>  (215) 
nan

>  <Pocket>  (215) 
nan

>  <ATP_Site>  (215) 
nan

>  <Peripheral>  (215) 
nan

>  <Num_H_Atoms_ProtBoundConf>  (215) 
nan

>  <Num_Resolved_Atoms>  (215) 
nan

>  <Num_Not_Resolved_Atoms>  (215) 
nan

$$$$
CHEMBL1584439
     RDKit          3D

  0  0  0  0  0  0  0  0  0  0999 V3000
M  V30 BEGIN CTAB
M  V30 COUNTS 50 52 0 0 0
M  V30 BEGIN ATOM
M  V30 1 N 2.232272 -2.201270 4.930549 0
M  V30 2 C 2.169081 -2.217012 3.490668 0
M  V30 3 O 2.171489 -3.364093 2.975242 0
M  V30 4 C 2.119381 -0.802908 3.065738 0
M  V30 5 C 2.048631 -0.639548 1.560440 0
M  V30 6 N 2.005595 0.791303 1.293447 0
M  V30 7 C 2.983115 1.467140 0.551514 0
M  V30 8 O 3.958785 0.812181 0.083532 0
M  V30 9 C 2.947301 2.899182 0.280111 0
M  V30 10 C 3.964554 3.462863 -0.462928 0
M  V30 11 C 3.961206 4.814244 -0.737787 0
M  V30 12 C 2.954417 5.659833 -0.289997 0
M  V30 13 C 1.939458 5.069237 0.457133 0
M  V30 14 C 1.932663 3.710219 0.739820 0
M  V30 15 C 0.852028 -1.353260 1.043703 0
M  V30 16 C -0.408444 -0.831566 1.245907 0
M  V30 17 C -1.508184 -1.507146 0.760026 0
M  V30 18 C -1.442112 -2.694975 0.069574 0
M  V30 19 N -2.560436 -3.398599 -0.436130 0
M  V30 20 C -3.932323 -2.998252 -0.324577 0
M  V30 21 C -4.305045 -1.677847 -0.962972 0
M  V30 22 C -5.557063 -2.343019 -1.496546 0
M  V30 23 C -4.875618 -3.677505 -1.294230 0
M  V30 24 C -0.170544 -3.176121 -0.107988 0
M  V30 25 N 0.109944 -4.387168 -0.795080 0 CHG=1 VAL=4
M  V30 26 O -0.349573 -5.067774 -1.727532 0
M  V30 27 O 1.190012 -5.178698 -0.452269 0 CHG=-1 VAL=1
M  V30 28 C 0.963497 -2.543484 0.355652 0
M  V30 29 H 2.461474 -2.136037 5.944895 0
M  V30 30 H 1.962329 -2.282426 5.935385 0
M  V30 31 H 1.215830 -0.294588 3.470375 0
M  V30 32 H 2.977193 -0.223026 3.462581 0
M  V30 33 H 2.959137 -1.102084 1.094382 0
M  V30 34 H 1.190321 1.307319 1.690523 0
M  V30 35 H 4.789631 2.849238 -0.846158 0
M  V30 36 H 4.765244 5.273885 -1.328004 0
M  V30 37 H 2.950213 6.723448 -0.505265 0
M  V30 38 H 1.125363 5.697066 0.830636 0
M  V30 39 H 1.122494 3.310901 1.321375 0
M  V30 40 H -0.546197 0.104002 1.782624 0
M  V30 41 H -2.473001 -1.057739 0.946016 0
M  V30 42 H -2.403129 -4.292417 -0.939157 0
M  V30 43 H -4.372842 -3.133706 0.706493 0
M  V30 44 H -4.510853 -0.836717 -0.269552 0
M  V30 45 H -3.548265 -1.454222 -1.768513 0
M  V30 46 H -6.390090 -2.201533 -0.797823 0
M  V30 47 H -5.790370 -2.100605 -2.554242 0
M  V30 48 H -5.568178 -4.426084 -0.840141 0
M  V30 49 H -4.374087 -4.090808 -2.210481 0
M  V30 50 H 1.965216 -2.901263 0.228296 0
M  V30 END ATOM
M  V30 BEGIN BOND
M  V30 1 1 1 2
M  V30 2 2 2 3
M  V30 3 1 2 4
M  V30 4 1 4 5
M  V30 5 1 5 6
M  V30 6 1 6 7
M  V30 7 2 7 8
M  V30 8 1 7 9
M  V30 9 2 9 10
M  V30 10 1 10 11
M  V30 11 2 11 12
M  V30 12 1 12 13
M  V30 13 2 13 14
M  V30 14 1 5 15
M  V30 15 2 15 16
M  V30 16 1 16 17
M  V30 17 2 17 18
M  V30 18 1 18 19
M  V30 19 1 19 20
M  V30 20 1 20 21
M  V30 21 1 21 22
M  V30 22 1 22 23
M  V30 23 1 18 24
M  V30 24 1 24 25
M  V30 25 2 25 26
M  V30 26 1 25 27
M  V30 27 2 24 28
M  V30 28 1 14 9
M  V30 29 1 28 15
M  V30 30 1 23 20
M  V30 31 1 1 29
M  V30 32 1 1 30
M  V30 33 1 4 31
M  V30 34 1 4 32
M  V30 35 1 5 33
M  V30 36 1 6 34
M  V30 37 1 10 35
M  V30 38 1 11 36
M  V30 39 1 12 37
M  V30 40 1 13 38
M  V30 41 1 14 39
M  V30 42 1 16 40
M  V30 43 1 17 41
M  V30 44 1 19 42
M  V30 45 1 20 43
M  V30 46 1 21 44
M  V30 47 1 21 45
M  V30 48 1 22 46
M  V30 49 1 22 47
M  V30 50 1 23 48
M  V30 51 1 23 49
M  V30 52 1 28 50
M  V30 END BOND
M  V30 END CTAB
M  END
>  <Dataset>  (216) 
ChEMBL_Kinases

>  <Ligand_Instance>  (216) 
nan

>  <PDB_ID>  (216) 
nan

>  <Standardized_SMILES>  (216) 
NC(=O)CC(NC(=O)c1ccccc1)c1ccc(NC2CCC2)c([N+](=O)[O-])c1

>  <Name>  (216) 
nan

>  <Pocket>  (216) 
nan

>  <ATP_Site>  (216) 
nan

>  <Peripheral>  (216) 
nan

>  <Num_H_Atoms_ProtBoundConf>  (216) 
nan

>  <Num_Resolved_Atoms>  (216) 
nan

>  <Num_Not_Resolved_Atoms>  (216) 
nan

$$$$
CHEMBL1584414
     RDKit          3D

  0  0  0  0  0  0  0  0  0  0999 V3000
M  V30 BEGIN CTAB
M  V30 COUNTS 45 48 0 0 0
M  V30 BEGIN ATOM
M  V30 1 C -3.262250 -1.674623 0.474593 0
M  V30 2 C -2.075831 -0.970765 0.934163 0
M  V30 3 C -1.656779 0.305565 0.662373 0
M  V30 4 C -0.479000 0.598298 1.301720 0
M  V30 5 C 0.487431 1.693941 1.405639 0
M  V30 6 C 1.075203 2.359066 0.406454 0
M  V30 7 C 0.925588 2.189642 -1.024321 0
M  V30 8 O 0.143855 1.378906 -1.609758 0
M  V30 9 C 1.850902 3.136636 -1.692365 0
M  V30 10 C 2.150500 3.412394 -3.011825 0
M  V30 11 C 3.105378 4.376542 -3.345623 0
M  V30 12 C 3.762891 5.067158 -2.384785 0
M  V30 13 C 3.465739 4.793387 -1.045355 0
M  V30 14 C 2.526671 3.845919 -0.688638 0
M  V30 15 C 2.074508 3.394846 0.639883 0
M  V30 16 O 2.462650 3.809663 1.748380 0
M  V30 17 C -0.170558 -0.588522 2.005853 0
M  V30 18 C 1.020887 -0.837116 2.865943 0
M  V30 19 N -1.157839 -1.506390 1.756804 0
M  V30 20 C -1.062892 -2.826771 2.342877 0
M  V30 21 C -1.134189 -3.139335 3.680925 0
M  V30 22 C -0.997663 -4.420958 4.137289 0
M  V30 23 C -0.783270 -5.387504 3.175934 0
M  V30 24 C -0.700205 -5.153265 1.818898 0
M  V30 25 C -0.471241 -6.176551 0.815227 0
M  V30 26 O -0.401453 -5.984735 -0.399945 0
M  V30 27 O -0.303774 -7.524182 1.173744 0
M  V30 28 C -0.850865 -3.832986 1.448359 0
M  V30 29 H -3.333236 -2.700291 0.943813 0
M  V30 30 H -3.477309 -1.667502 -0.590044 0
M  V30 31 H -4.146367 -1.149559 0.951378 0
M  V30 32 H -2.115263 1.059061 0.044138 0
M  V30 33 H 0.711332 1.967946 2.446635 0
M  V30 34 H 1.584379 2.821227 -3.724571 0
M  V30 35 H 3.291858 4.542997 -4.394382 0
M  V30 36 H 4.504894 5.816020 -2.589824 0
M  V30 37 H 4.012131 5.360578 -0.290436 0
M  V30 38 H 0.746450 -1.370309 3.791618 0
M  V30 39 H 1.837336 -1.330544 2.299792 0
M  V30 40 H 1.417539 0.141750 3.189752 0
M  V30 41 H -1.314557 -2.323560 4.375982 0
M  V30 42 H -1.052819 -4.650277 5.190503 0
M  V30 43 H -0.672988 -6.384763 3.537574 0
M  V30 44 H 0.085183 -8.210447 0.568473 0
M  V30 45 H -0.794128 -3.633593 0.377304 0
M  V30 END ATOM
M  V30 BEGIN BOND
M  V30 1 1 1 2
M  V30 2 2 2 3
M  V30 3 1 3 4
M  V30 4 1 4 5
M  V30 5 2 5 6 CFG=2
M  V30 6 1 6 7
M  V30 7 2 7 8
M  V30 8 1 7 9
M  V30 9 2 9 10
M  V30 10 1 10 11
M  V30 11 2 11 12
M  V30 12 1 12 13
M  V30 13 2 13 14
M  V30 14 1 14 15
M  V30 15 2 15 16
M  V30 16 2 4 17
M  V30 17 1 17 18
M  V30 18 1 17 19
M  V30 19 1 19 20
M  V30 20 2 20 21
M  V30 21 1 21 22
M  V30 22 2 22 23
M  V30 23 1 23 24
M  V30 24 1 24 25
M  V30 25 2 25 26
M  V30 26 1 25 27
M  V30 27 2 24 28
M  V30 28 1 19 2
M  V30 29 1 28 20
M  V30 30 1 15 6
M  V30 31 1 14 9
M  V30 32 1 1 29
M  V30 33 1 1 30
M  V30 34 1 1 31
M  V30 35 1 3 32
M  V30 36 1 5 33
M  V30 37 1 10 34
M  V30 38 1 11 35
M  V30 39 1 12 36
M  V30 40 1 13 37
M  V30 41 1 18 38
M  V30 42 1 18 39
M  V30 43 1 18 40
M  V30 44 1 21 41
M  V30 45 1 22 42
M  V30 46 1 23 43
M  V30 47 1 27 44
M  V30 48 1 28 45
M  V30 END BOND
M  V30 END CTAB
M  END
>  <Dataset>  (217) 
ChEMBL_Kinases

>  <Ligand_Instance>  (217) 
nan

>  <PDB_ID>  (217) 
nan

>  <Standardized_SMILES>  (217) 
Cc1cc(C=C2C(=O)c3ccccc3C2=O)c(C)n1-c1cccc(C(=O)O)c1

>  <Name>  (217) 
nan

>  <Pocket>  (217) 
nan

>  <ATP_Site>  (217) 
nan

>  <Peripheral>  (217) 
nan

>  <Num_H_Atoms_ProtBoundConf>  (217) 
nan

>  <Num_Resolved_Atoms>  (217) 
nan

>  <Num_Not_Resolved_Atoms>  (217) 
nan

$$$$
CHEMBL1584385
     RDKit          3D

  0  0  0  0  0  0  0  0  0  0999 V3000
M  V30 BEGIN CTAB
M  V30 COUNTS 45 48 0 0 0
M  V30 BEGIN ATOM
M  V30 1 O -1.543573 -4.326461 3.185504 0
M  V30 2 S -1.598463 -4.887113 1.813044 0
M  V30 3 O -2.600096 -5.992845 1.663982 0
M  V30 4 C 0.017148 -5.402032 1.242196 0
M  V30 5 C 0.585250 -4.085322 0.824498 0
M  V30 6 C -0.450037 -3.211165 0.253390 0
M  V30 7 N -0.348193 -3.066924 -1.193845 0
M  V30 8 N 0.091004 -2.063559 -1.793790 0
M  V30 9 C 0.575962 -0.870087 -1.190382 0
M  V30 10 C -0.080682 0.327857 -1.098345 0
M  V30 11 O -1.372199 0.553289 -1.605669 0
M  V30 12 N 0.643655 1.281040 -0.465038 0
M  V30 13 C 0.301854 2.631504 -0.182323 0
M  V30 14 C -0.361610 2.922394 1.064541 0
M  V30 15 C 0.384569 3.220109 2.190212 0
M  V30 16 C -0.188246 3.507628 3.413907 0
M  V30 17 C -1.578175 3.499959 3.529638 0
M  V30 18 C -2.363898 3.205091 2.419658 0
M  V30 19 C -1.751852 2.918781 1.196721 0
M  V30 20 C 1.802861 0.669982 -0.141724 0
M  V30 21 C 2.953531 1.074675 0.505896 0
M  V30 22 C 4.038201 0.244113 0.724814 0
M  V30 23 C 3.991858 -1.065558 0.280900 0
M  V30 24 C 2.854544 -1.496967 -0.369352 0
M  V30 25 C 1.788413 -0.641104 -0.571767 0
M  V30 26 C -1.826630 -3.628768 0.576660 0
M  V30 27 H -0.168080 -6.069590 0.371230 0
M  V30 28 H 0.613233 -5.887577 2.013301 0
M  V30 29 H 1.067672 -3.650374 1.728183 0
M  V30 30 H 1.368253 -4.275929 0.061333 0
M  V30 31 H -0.294631 -2.181913 0.666446 0
M  V30 32 H -1.426677 0.943348 -2.545806 0
M  V30 33 H 1.209299 3.288889 -0.290023 0
M  V30 34 H -0.358706 2.975204 -1.030404 0
M  V30 35 H 1.454437 3.257232 2.227417 0
M  V30 36 H 0.337528 3.744950 4.318513 0
M  V30 37 H -2.067775 3.722499 4.481660 0
M  V30 38 H -3.428022 3.211166 2.556581 0
M  V30 39 H -2.380677 2.694022 0.353839 0
M  V30 40 H 3.056407 2.085018 0.878497 0
M  V30 41 H 4.925137 0.619521 1.244501 0
M  V30 42 H 4.867717 -1.667592 0.479842 0
M  V30 43 H 2.853307 -2.524595 -0.701892 0
M  V30 44 H -2.277499 -4.161381 -0.303914 0
M  V30 45 H -2.487283 -2.814418 0.937516 0
M  V30 END ATOM
M  V30 BEGIN BOND
M  V30 1 2 1 2
M  V30 2 2 2 3
M  V30 3 1 2 4
M  V30 4 1 4 5
M  V30 5 1 5 6
M  V30 6 1 6 7
M  V30 7 2 7 8 CFG=2
M  V30 8 1 8 9
M  V30 9 2 9 10
M  V30 10 1 10 11
M  V30 11 1 10 12
M  V30 12 1 12 13
M  V30 13 1 13 14
M  V30 14 2 14 15
M  V30 15 1 15 16
M  V30 16 2 16 17
M  V30 17 1 17 18
M  V30 18 2 18 19
M  V30 19 1 12 20
M  V30 20 2 20 21
M  V30 21 1 21 22
M  V30 22 2 22 23
M  V30 23 1 23 24
M  V30 24 2 24 25
M  V30 25 1 6 26
M  V30 26 1 26 2
M  V30 27 1 25 9
M  V30 28 1 19 14
M  V30 29 1 25 20
M  V30 30 1 4 27
M  V30 31 1 4 28
M  V30 32 1 5 29
M  V30 33 1 5 30
M  V30 34 1 6 31
M  V30 35 1 11 32
M  V30 36 1 13 33
M  V30 37 1 13 34
M  V30 38 1 15 35
M  V30 39 1 16 36
M  V30 40 1 17 37
M  V30 41 1 18 38
M  V30 42 1 19 39
M  V30 43 1 21 40
M  V30 44 1 22 41
M  V30 45 1 23 42
M  V30 46 1 24 43
M  V30 47 1 26 44
M  V30 48 1 26 45
M  V30 END BOND
M  V30 END CTAB
M  END
>  <Dataset>  (218) 
ChEMBL_Kinases

>  <Ligand_Instance>  (218) 
nan

>  <PDB_ID>  (218) 
nan

>  <Standardized_SMILES>  (218) 
O=S1(=O)CCC(N=Nc2c(O)n(Cc3ccccc3)c3ccccc23)C1

>  <Name>  (218) 
nan

>  <Pocket>  (218) 
nan

>  <ATP_Site>  (218) 
nan

>  <Peripheral>  (218) 
nan

>  <Num_H_Atoms_ProtBoundConf>  (218) 
nan

>  <Num_Resolved_Atoms>  (218) 
nan

>  <Num_Not_Resolved_Atoms>  (218) 
nan

$$$$
CHEMBL1584314
     RDKit          3D

  0  0  0  0  0  0  0  0  0  0999 V3000
M  V30 BEGIN CTAB
M  V30 COUNTS 58 63 0 0 0
M  V30 BEGIN ATOM
M  V30 1 N 2.220137 -3.639111 0.718062 0
M  V30 2 C 1.217582 -2.773501 0.253789 0
M  V30 3 C 0.964398 -1.441687 0.478634 0
M  V30 4 C 1.827680 -0.618792 1.357590 0
M  V30 5 O 2.827112 -1.225257 1.893142 0
M  V30 6 N 1.669837 0.779010 1.675476 0
M  V30 7 C 2.741781 1.102719 2.549628 0
M  V30 8 C 2.712969 2.522434 2.971867 0
M  V30 9 N 1.605119 2.999213 3.706061 0
M  V30 10 C 1.902068 4.409021 4.023147 0
M  V30 11 C 0.963578 5.344189 3.328710 0
M  V30 12 O -0.294137 5.171994 3.863100 0
M  V30 13 C -0.650519 3.847711 3.786315 0
M  V30 14 C 0.340138 2.978635 3.029233 0
M  V30 15 C -0.151907 -0.992288 -0.196192 0
M  V30 16 N -0.802244 0.179259 -0.309756 0
M  V30 17 C -1.905940 0.270346 -1.085452 0
M  V30 18 C -2.554633 1.491293 -1.182565 0
M  V30 19 C -3.686661 1.599103 -1.973751 0
M  V30 20 C -4.140085 0.464458 -2.652662 0
M  V30 21 C -3.492292 -0.759730 -2.557125 0
M  V30 22 C -2.355897 -0.850123 -1.757383 0
M  V30 23 N -1.694335 -2.015735 -1.633737 0
M  V30 24 C -0.595026 -2.126831 -0.867390 0
M  V30 25 N 0.222414 -3.158885 -0.589327 0
M  V30 26 C 0.018238 -4.463170 -1.138014 0
M  V30 27 C 1.090170 -5.083827 -1.773703 0
M  V30 28 C 0.916173 -6.342983 -2.310601 0
M  V30 29 C -0.284658 -7.013146 -2.241163 0
M  V30 30 C -1.345139 -6.365795 -1.596585 0
M  V30 31 C -1.214520 -5.102961 -1.044039 0
M  V30 32 O -2.438834 -7.250550 -1.662516 0
M  V30 33 C -2.214862 -8.148492 -2.761662 0
M  V30 34 O -0.787706 -8.255025 -2.664508 0
M  V30 35 H 3.245447 -3.682961 0.442625 0
M  V30 36 H 2.137380 -4.418411 1.437963 0
M  V30 37 H 0.831607 1.066165 1.154018 0
M  V30 38 H 3.701390 0.966015 1.965744 0
M  V30 39 H 2.854986 0.393057 3.399284 0
M  V30 40 H 3.641468 2.818006 3.551142 0
M  V30 41 H 2.794736 3.190098 2.054666 0
M  V30 42 H 2.962707 4.648752 3.815780 0
M  V30 43 H 1.750923 4.545763 5.117439 0
M  V30 44 H 0.933765 5.138940 2.250055 0
M  V30 45 H 1.290827 6.387449 3.532949 0
M  V30 46 H -1.656383 3.816464 3.307697 0
M  V30 47 H -0.769552 3.452970 4.814516 0
M  V30 48 H 0.366061 3.217175 1.964271 0
M  V30 49 H -0.082192 1.937209 3.128965 0
M  V30 50 H -2.223802 2.375942 -0.669828 0
M  V30 51 H -4.234129 2.549619 -2.079667 0
M  V30 52 H -5.027327 0.487533 -3.291929 0
M  V30 53 H -3.872329 -1.632675 -3.102489 0
M  V30 54 H 2.061599 -4.653013 -1.882263 0
M  V30 55 H 1.684588 -6.906566 -2.822012 0
M  V30 56 H -2.027455 -4.600956 -0.547256 0
M  V30 57 H -2.731223 -9.103143 -2.635246 0
M  V30 58 H -2.518480 -7.562775 -3.655780 0
M  V30 END ATOM
M  V30 BEGIN BOND
M  V30 1 1 1 2
M  V30 2 2 2 3
M  V30 3 1 3 4
M  V30 4 2 4 5
M  V30 5 1 4 6
M  V30 6 1 6 7
M  V30 7 1 7 8
M  V30 8 1 8 9
M  V30 9 1 9 10
M  V30 10 1 10 11
M  V30 11 1 11 12
M  V30 12 1 12 13
M  V30 13 1 13 14
M  V30 14 1 3 15
M  V30 15 2 15 16
M  V30 16 1 16 17
M  V30 17 2 17 18
M  V30 18 1 18 19
M  V30 19 2 19 20
M  V30 20 1 20 21
M  V30 21 2 21 22
M  V30 22 1 22 23
M  V30 23 2 23 24
M  V30 24 1 24 25
M  V30 25 1 25 26
M  V30 26 2 26 27
M  V30 27 1 27 28
M  V30 28 2 28 29
M  V30 29 1 29 30
M  V30 30 2 30 31
M  V30 31 1 30 32
M  V30 32 1 32 33
M  V30 33 1 33 34
M  V30 34 1 25 2
M  V30 35 1 31 26
M  V30 36 1 14 9
M  V30 37 1 24 15
M  V30 38 1 34 29
M  V30 39 1 22 17
M  V30 40 1 1 35
M  V30 41 1 1 36
M  V30 42 1 6 37
M  V30 43 1 7 38
M  V30 44 1 7 39
M  V30 45 1 8 40
M  V30 46 1 8 41
M  V30 47 1 10 42
M  V30 48 1 10 43
M  V30 49 1 11 44
M  V30 50 1 11 45
M  V30 51 1 13 46
M  V30 52 1 13 47
M  V30 53 1 14 48
M  V30 54 1 14 49
M  V30 55 1 18 50
M  V30 56 1 19 51
M  V30 57 1 20 52
M  V30 58 1 21 53
M  V30 59 1 27 54
M  V30 60 1 28 55
M  V30 61 1 31 56
M  V30 62 1 33 57
M  V30 63 1 33 58
M  V30 END BOND
M  V30 END CTAB
M  END
>  <Dataset>  (219) 
ChEMBL_Kinases

>  <Ligand_Instance>  (219) 
nan

>  <PDB_ID>  (219) 
nan

>  <Standardized_SMILES>  (219) 
Nc1c(C(=O)NCCN2CCOCC2)c2nc3ccccc3nc2n1-c1ccc2c(c1)OCO2

>  <Name>  (219) 
nan

>  <Pocket>  (219) 
nan

>  <ATP_Site>  (219) 
nan

>  <Peripheral>  (219) 
nan

>  <Num_H_Atoms_ProtBoundConf>  (219) 
nan

>  <Num_Resolved_Atoms>  (219) 
nan

>  <Num_Not_Resolved_Atoms>  (219) 
nan

$$$$
CHEMBL1583998
     RDKit          3D

  0  0  0  0  0  0  0  0  0  0999 V3000
M  V30 BEGIN CTAB
M  V30 COUNTS 41 43 0 0 0
M  V30 BEGIN ATOM
M  V30 1 O -0.703310 -1.079155 2.138133 0
M  V30 2 C 0.439452 -1.581312 1.979221 0
M  V30 3 N 1.481401 -0.715562 1.780210 0
M  V30 4 C 2.656849 -1.176177 1.620433 0
M  V30 5 N 3.842988 -0.380504 1.401437 0
M  V30 6 S 3.608976 1.218024 0.791355 0
M  V30 7 O 2.825199 2.073836 1.778540 0
M  V30 8 O 4.944777 1.894929 0.629164 0
M  V30 9 C 2.831899 1.210624 -0.808110 0
M  V30 10 C 2.614607 2.570311 -1.340791 0
M  V30 11 C 1.391680 3.155281 -1.003420 0
M  V30 12 C 0.976264 4.412183 -1.389499 0
M  V30 13 C 1.839630 5.170897 -2.182289 0
M  V30 14 C 3.051561 4.596298 -2.519033 0
M  V30 15 C 3.448447 3.333176 -2.120708 0
M  V30 16 S 2.554648 -2.982493 1.748730 0
M  V30 17 C 0.779790 -2.976618 1.985157 0
M  V30 18 C -0.096154 -3.955411 2.123799 0
M  V30 19 C -1.530746 -3.887447 2.287475 0
M  V30 20 C -2.466985 -3.221988 1.530624 0
M  V30 21 C -3.817275 -3.160424 1.752961 0
M  V30 22 N -4.656255 -2.415414 0.863597 0 CHG=1 VAL=4
M  V30 23 O -5.886968 -2.417712 1.159877 0
M  V30 24 O -4.103718 -1.760301 -0.223860 0 CHG=-1 VAL=1
M  V30 25 C -4.303767 -3.847569 2.868955 0
M  V30 26 C -3.396357 -4.526661 3.649979 0
M  V30 27 C -2.019369 -4.577882 3.407216 0
M  V30 28 O -1.220939 -5.310851 4.291024 0
M  V30 29 H 4.765328 -0.823812 1.625647 0
M  V30 30 H 3.453593 0.566738 -1.459253 0
M  V30 31 H 1.866317 0.674683 -0.708147 0
M  V30 32 H 0.661878 2.616817 -0.379578 0
M  V30 33 H 0.021562 4.813728 -1.100716 0
M  V30 34 H 1.557836 6.147655 -2.502864 0
M  V30 35 H 3.729871 5.184916 -3.137474 0
M  V30 36 H 4.384427 2.870081 -2.371626 0
M  V30 37 H 0.353128 -4.960944 2.108297 0
M  V30 38 H -2.097875 -2.707234 0.639787 0
M  V30 39 H -5.350574 -3.805380 3.050222 0
M  V30 40 H -3.870943 -5.035666 4.503873 0
M  V30 41 H -1.008036 -6.299710 4.086740 0
M  V30 END ATOM
M  V30 BEGIN BOND
M  V30 1 2 1 2
M  V30 2 1 2 3
M  V30 3 2 3 4
M  V30 4 1 4 5
M  V30 5 1 5 6
M  V30 6 2 6 7
M  V30 7 2 6 8
M  V30 8 1 6 9
M  V30 9 1 9 10
M  V30 10 2 10 11
M  V30 11 1 11 12
M  V30 12 2 12 13
M  V30 13 1 13 14
M  V30 14 2 14 15
M  V30 15 1 4 16
M  V30 16 1 16 17
M  V30 17 2 17 18
M  V30 18 1 18 19
M  V30 19 2 19 20
M  V30 20 1 20 21
M  V30 21 1 21 22
M  V30 22 2 22 23
M  V30 23 1 22 24
M  V30 24 2 21 25
M  V30 25 1 25 26
M  V30 26 2 26 27
M  V30 27 1 27 28
M  V30 28 1 17 2
M  V30 29 1 27 19
M  V30 30 1 15 10
M  V30 31 1 5 29
M  V30 32 1 9 30
M  V30 33 1 9 31
M  V30 34 1 11 32
M  V30 35 1 12 33
M  V30 36 1 13 34
M  V30 37 1 14 35
M  V30 38 1 15 36
M  V30 39 1 18 37
M  V30 40 1 20 38
M  V30 41 1 25 39
M  V30 42 1 26 40
M  V30 43 1 28 41
M  V30 END BOND
M  V30 END CTAB
M  END
>  <Dataset>  (220) 
ChEMBL_Kinases

>  <Ligand_Instance>  (220) 
nan

>  <PDB_ID>  (220) 
nan

>  <Standardized_SMILES>  (220) 
O=C1N=C(NS(=O)(=O)Cc2ccccc2)S/C1=C/c1cc([N+](=O)[O-])ccc1O

>  <Name>  (220) 
nan

>  <Pocket>  (220) 
nan

>  <ATP_Site>  (220) 
nan

>  <Peripheral>  (220) 
nan

>  <Num_H_Atoms_ProtBoundConf>  (220) 
nan

>  <Num_Resolved_Atoms>  (220) 
nan

>  <Num_Not_Resolved_Atoms>  (220) 
nan

$$$$
CHEMBL1583874
     RDKit          3D

  0  0  0  0  0  0  0  0  0  0999 V3000
M  V30 BEGIN CTAB
M  V30 COUNTS 30 32 0 0 0
M  V30 BEGIN ATOM
M  V30 1 N 2.245798 -3.977573 1.350675 0
M  V30 2 C 2.966634 -2.816906 1.733400 0
M  V30 3 O 4.085814 -3.051093 2.261860 0
M  V30 4 C 2.519900 -1.438246 1.563970 0
M  V30 5 C 3.395320 -0.470553 2.014559 0
M  V30 6 C 2.980409 0.857366 1.858720 0
M  V30 7 Br 4.161906 2.219782 2.468689 0
M  V30 8 C 1.761530 1.205831 1.286136 0
M  V30 9 C 0.987598 0.159612 0.881623 0
M  V30 10 C -0.263618 0.204062 0.283745 0
M  V30 11 C -0.685096 -1.086641 0.040162 0
M  V30 12 N 0.297755 -1.921846 0.483954 0
M  V30 13 C 1.293251 -1.181906 0.984688 0
M  V30 14 C -2.006072 -1.298756 -0.599551 0
M  V30 15 C -3.102196 -0.487035 0.085374 0
M  V30 16 C -2.574814 0.848941 0.550888 0
M  V30 17 C -1.266997 1.211892 -0.164156 0
M  V30 18 H 2.465001 -4.426428 0.436252 0
M  V30 19 H 1.535914 -4.264566 2.074293 0
M  V30 20 H 4.345299 -0.683466 2.462716 0
M  V30 21 H 1.448367 2.222076 1.168963 0
M  V30 22 H 0.290823 -2.965037 0.446929 0
M  V30 23 H -2.273199 -2.347040 -0.704677 0
M  V30 24 H -1.932824 -0.875559 -1.631913 0
M  V30 25 H -3.933160 -0.290512 -0.644224 0
M  V30 26 H -3.447146 -1.074802 0.948331 0
M  V30 27 H -2.302268 0.747423 1.623221 0
M  V30 28 H -3.338775 1.628081 0.385142 0
M  V30 29 H -1.019209 2.231741 0.170470 0
M  V30 30 H -1.433069 1.104014 -1.237334 0
M  V30 END ATOM
M  V30 BEGIN BOND
M  V30 1 1 1 2
M  V30 2 2 2 3
M  V30 3 1 2 4
M  V30 4 2 4 5
M  V30 5 1 5 6
M  V30 6 1 6 7
M  V30 7 2 6 8
M  V30 8 1 8 9
M  V30 9 1 9 10
M  V30 10 2 10 11
M  V30 11 1 11 12
M  V30 12 1 12 13
M  V30 13 1 11 14
M  V30 14 1 14 15
M  V30 15 1 15 16
M  V30 16 1 16 17
M  V30 17 1 13 4
M  V30 18 2 13 9
M  V30 19 1 17 10
M  V30 20 1 1 18
M  V30 21 1 1 19
M  V30 22 1 5 20
M  V30 23 1 8 21
M  V30 24 1 12 22
M  V30 25 1 14 23
M  V30 26 1 14 24
M  V30 27 1 15 25
M  V30 28 1 15 26
M  V30 29 1 16 27
M  V30 30 1 16 28
M  V30 31 1 17 29
M  V30 32 1 17 30
M  V30 END BOND
M  V30 END CTAB
M  END
>  <Dataset>  (221) 
ChEMBL_Kinases

>  <Ligand_Instance>  (221) 
nan

>  <PDB_ID>  (221) 
nan

>  <Standardized_SMILES>  (221) 
NC(=O)c1cc(Br)cc2c3c([nH]c12)CCCC3

>  <Name>  (221) 
nan

>  <Pocket>  (221) 
nan

>  <ATP_Site>  (221) 
nan

>  <Peripheral>  (221) 
nan

>  <Num_H_Atoms_ProtBoundConf>  (221) 
nan

>  <Num_Resolved_Atoms>  (221) 
nan

>  <Num_Not_Resolved_Atoms>  (221) 
nan

$$$$
CHEMBL1583863
     RDKit          3D

  0  0  0  0  0  0  0  0  0  0999 V3000
M  V30 BEGIN CTAB
M  V30 COUNTS 61 63 0 0 0
M  V30 BEGIN ATOM
M  V30 1 C 1.567294 -4.101477 3.601871 0
M  V30 2 C 2.518140 -4.045344 2.429030 0
M  V30 3 O 2.116108 -2.936808 1.613274 0
M  V30 4 C 2.801356 -2.606560 0.458073 0
M  V30 5 O 3.779594 -3.360270 0.200079 0
M  V30 6 C 2.500709 -1.504306 -0.448237 0
M  V30 7 N 3.291285 -1.287607 -1.530097 0
M  V30 8 C 2.782139 -0.191273 -2.162145 0
M  V30 9 C 3.132765 0.512408 -3.287709 0
M  V30 10 C 2.444315 1.613311 -3.726808 0
M  V30 11 O 2.754856 2.351927 -4.846241 0
M  V30 12 C 3.822377 2.105721 -5.715536 0
M  V30 13 C 1.337036 2.039984 -2.998820 0
M  V30 14 O 0.623718 3.151581 -3.422744 0
M  V30 15 C -0.484903 3.570333 -2.687240 0
M  V30 16 C 0.949789 1.349923 -1.847994 0
M  V30 17 C 1.682900 0.240633 -1.448187 0
M  V30 18 C 1.490877 -0.595036 -0.345702 0
M  V30 19 N 0.481516 -0.470319 0.608428 0
M  V30 20 C 0.330888 0.094766 1.902323 0
M  V30 21 O 1.330154 0.678038 2.444558 0
M  V30 22 C -0.938537 0.053748 2.693146 0
M  V30 23 N -1.987650 -0.606039 1.973515 0
M  V30 24 C -2.399344 0.214028 0.852560 0
M  V30 25 C -3.127078 -0.879203 2.790449 0
M  V30 26 C -4.258396 -1.504082 1.970655 0
M  V30 27 C -3.817999 -2.889948 1.478653 0
M  V30 28 C -3.744008 -3.761063 2.716882 0
M  V30 29 C -2.594768 -3.201843 3.558282 0
M  V30 30 C -2.862353 -1.780446 3.973216 0
M  V30 31 H 1.417458 -5.145857 3.967855 0
M  V30 32 H 1.977945 -3.542733 4.485753 0
M  V30 33 H 0.623961 -3.596620 3.330853 0
M  V30 34 H 2.504155 -4.947619 1.793072 0
M  V30 35 H 3.565086 -3.922338 2.779358 0
M  V30 36 H 4.125990 -1.768154 -1.906969 0
M  V30 37 H 3.992190 0.180787 -3.848731 0
M  V30 38 H 4.089514 1.037447 -5.698864 0
M  V30 39 H 4.729586 2.702882 -5.425134 0
M  V30 40 H 3.589567 2.367034 -6.786504 0
M  V30 41 H -1.194325 2.728969 -2.453527 0
M  V30 42 H -0.244087 4.048697 -1.721998 0
M  V30 43 H -1.119105 4.305803 -3.233547 0
M  V30 44 H 0.084052 1.667768 -1.261859 0
M  V30 45 H -0.349476 -0.963423 0.163755 0
M  V30 46 H -0.757967 -0.320076 3.713316 0
M  V30 47 H -1.181656 1.153247 2.854207 0
M  V30 48 H -2.686659 -0.354277 -0.035435 0
M  V30 49 H -3.276548 0.834304 1.195673 0
M  V30 50 H -1.635774 0.973698 0.577789 0
M  V30 51 H -3.524203 0.076166 3.179236 0
M  V30 52 H -4.522651 -0.823019 1.164938 0
M  V30 53 H -5.091573 -1.692203 2.676125 0
M  V30 54 H -4.559247 -3.235890 0.754630 0
M  V30 55 H -2.787448 -2.791864 1.069224 0
M  V30 56 H -4.702733 -3.758860 3.254079 0
M  V30 57 H -3.458993 -4.804908 2.467713 0
M  V30 58 H -1.706019 -3.275137 2.921373 0
M  V30 59 H -2.523736 -3.817905 4.463317 0
M  V30 60 H -2.094311 -1.446634 4.645528 0
M  V30 61 H -3.833588 -1.784679 4.552668 0
M  V30 END ATOM
M  V30 BEGIN BOND
M  V30 1 1 1 2
M  V30 2 1 2 3
M  V30 3 1 3 4
M  V30 4 2 4 5
M  V30 5 1 4 6
M  V30 6 1 6 7
M  V30 7 1 7 8
M  V30 8 2 8 9
M  V30 9 1 9 10
M  V30 10 1 10 11
M  V30 11 1 11 12
M  V30 12 2 10 13
M  V30 13 1 13 14
M  V30 14 1 14 15
M  V30 15 1 13 16
M  V30 16 2 16 17
M  V30 17 1 17 18
M  V30 18 1 18 19
M  V30 19 1 19 20
M  V30 20 2 20 21
M  V30 21 1 20 22
M  V30 22 1 22 23
M  V30 23 1 23 24
M  V30 24 1 23 25
M  V30 25 1 25 26
M  V30 26 1 26 27
M  V30 27 1 27 28
M  V30 28 1 28 29
M  V30 29 1 29 30
M  V30 30 2 18 6
M  V30 31 1 30 25
M  V30 32 1 17 8
M  V30 33 1 1 31
M  V30 34 1 1 32
M  V30 35 1 1 33
M  V30 36 1 2 34
M  V30 37 1 2 35
M  V30 38 1 7 36
M  V30 39 1 9 37
M  V30 40 1 12 38
M  V30 41 1 12 39
M  V30 42 1 12 40
M  V30 43 1 15 41
M  V30 44 1 15 42
M  V30 45 1 15 43
M  V30 46 1 16 44
M  V30 47 1 19 45
M  V30 48 1 22 46
M  V30 49 1 22 47
M  V30 50 1 24 48
M  V30 51 1 24 49
M  V30 52 1 24 50
M  V30 53 1 25 51
M  V30 54 1 26 52
M  V30 55 1 26 53
M  V30 56 1 27 54
M  V30 57 1 27 55
M  V30 58 1 28 56
M  V30 59 1 28 57
M  V30 60 1 29 58
M  V30 61 1 29 59
M  V30 62 1 30 60
M  V30 63 1 30 61
M  V30 END BOND
M  V30 END CTAB
M  END
>  <Dataset>  (222) 
ChEMBL_Kinases

>  <Ligand_Instance>  (222) 
nan

>  <PDB_ID>  (222) 
nan

>  <Standardized_SMILES>  (222) 
CCOC(=O)c1[nH]c2cc(OC)c(OC)cc2c1NC(=O)CN(C)C1CCCCC1

>  <Name>  (222) 
nan

>  <Pocket>  (222) 
nan

>  <ATP_Site>  (222) 
nan

>  <Peripheral>  (222) 
nan

>  <Num_H_Atoms_ProtBoundConf>  (222) 
nan

>  <Num_Resolved_Atoms>  (222) 
nan

>  <Num_Not_Resolved_Atoms>  (222) 
nan

$$$$
CHEMBL1583795
     RDKit          3D

  0  0  0  0  0  0  0  0  0  0999 V3000
M  V30 BEGIN CTAB
M  V30 COUNTS 51 53 0 0 0
M  V30 BEGIN ATOM
M  V30 1 C 0.801124 -2.070168 6.088837 0
M  V30 2 O 2.033101 -1.411342 5.902711 0
M  V30 3 C 2.424175 -1.088242 4.611029 0
M  V30 4 C 3.635330 -0.443670 4.461786 0
M  V30 5 C 4.081222 -0.095098 3.203361 0
M  V30 6 C 3.361570 -0.363202 2.049415 0
M  V30 7 O 3.740269 -0.047392 0.766816 0
M  V30 8 C 4.920396 0.602583 0.384378 0
M  V30 9 C 2.142998 -1.013704 2.221005 0
M  V30 10 N 1.264031 -1.372120 1.146449 0
M  V30 11 C 0.237205 -0.511051 0.660808 0
M  V30 12 O 0.140483 0.606844 1.238595 0
M  V30 13 C -0.519942 -1.136934 -0.455548 0
M  V30 14 N -1.556559 -0.305522 -0.968621 0
M  V30 15 C -2.831470 -0.343970 -0.479501 0
M  V30 16 C -3.336862 -1.226792 0.621185 0
M  V30 17 C -3.861941 -2.542553 0.086478 0
M  V30 18 C -4.368554 -3.427956 1.194134 0
M  V30 19 O -4.429207 -3.270467 2.440410 0
M  V30 20 O -4.842680 -4.621147 0.689887 0
M  V30 21 C -3.677797 0.540082 -1.109734 0
M  V30 22 C -2.869668 1.155137 -2.039922 0
M  V30 23 C -1.587000 0.625871 -1.935540 0
M  V30 24 C -0.445036 1.013825 -2.740496 0
M  V30 25 C -0.428887 1.929816 -3.716442 0
M  V30 26 C 0.706074 2.226475 -4.422395 0
M  V30 27 C 1.866038 1.474281 -4.025855 0
M  V30 28 S 1.191154 0.400844 -2.655781 0
M  V30 29 C 1.683995 -1.369618 3.484985 0
M  V30 30 H 0.502973 -2.110349 7.154070 0
M  V30 31 H 0.858585 -3.089153 5.659488 0
M  V30 32 H 0.025959 -1.455669 5.585762 0
M  V30 33 H 4.275816 -0.189494 5.320495 0
M  V30 34 H 5.029487 0.410173 3.079969 0
M  V30 35 H 4.620032 1.468306 -0.266241 0
M  V30 36 H 5.577236 -0.017909 -0.256955 0
M  V30 37 H 5.529216 1.003839 1.193109 0
M  V30 38 H 1.511657 -2.344365 0.803726 0
M  V30 39 H 0.215310 -1.417791 -1.229475 0
M  V30 40 H -0.982254 -2.066319 -0.007060 0
M  V30 41 H -4.094284 -0.709075 1.209716 0
M  V30 42 H -2.491508 -1.493217 1.292993 0
M  V30 43 H -4.740825 -2.338866 -0.585716 0
M  V30 44 H -3.091573 -3.088862 -0.486929 0
M  V30 45 H -5.188980 -5.375184 1.296323 0
M  V30 46 H -4.723719 0.713803 -0.923952 0
M  V30 47 H -3.213423 1.930617 -2.733213 0
M  V30 48 H -1.330100 2.497372 -4.006688 0
M  V30 49 H 0.855013 2.934647 -5.224016 0
M  V30 50 H 2.894218 1.573315 -4.485607 0
M  V30 51 H 0.735308 -1.877335 3.632429 0
M  V30 END ATOM
M  V30 BEGIN BOND
M  V30 1 1 1 2
M  V30 2 1 2 3
M  V30 3 2 3 4
M  V30 4 1 4 5
M  V30 5 2 5 6
M  V30 6 1 6 7
M  V30 7 1 7 8
M  V30 8 1 6 9
M  V30 9 1 9 10
M  V30 10 1 10 11
M  V30 11 2 11 12
M  V30 12 1 11 13
M  V30 13 1 13 14
M  V30 14 1 14 15
M  V30 15 1 15 16
M  V30 16 1 16 17
M  V30 17 1 17 18
M  V30 18 2 18 19
M  V30 19 1 18 20
M  V30 20 2 15 21
M  V30 21 1 21 22
M  V30 22 2 22 23
M  V30 23 1 23 24
M  V30 24 2 24 25
M  V30 25 1 25 26
M  V30 26 2 26 27
M  V30 27 1 27 28
M  V30 28 2 9 29
M  V30 29 1 29 3
M  V30 30 1 23 14
M  V30 31 1 28 24
M  V30 32 1 1 30
M  V30 33 1 1 31
M  V30 34 1 1 32
M  V30 35 1 4 33
M  V30 36 1 5 34
M  V30 37 1 8 35
M  V30 38 1 8 36
M  V30 39 1 8 37
M  V30 40 1 10 38
M  V30 41 1 13 39
M  V30 42 1 13 40
M  V30 43 1 16 41
M  V30 44 1 16 42
M  V30 45 1 17 43
M  V30 46 1 17 44
M  V30 47 1 20 45
M  V30 48 1 21 46
M  V30 49 1 22 47
M  V30 50 1 25 48
M  V30 51 1 26 49
M  V30 52 1 27 50
M  V30 53 1 29 51
M  V30 END BOND
M  V30 END CTAB
M  END
>  <Dataset>  (223) 
ChEMBL_Kinases

>  <Ligand_Instance>  (223) 
nan

>  <PDB_ID>  (223) 
nan

>  <Standardized_SMILES>  (223) 
COc1ccc(OC)c(NC(=O)Cn2c(CCC(=O)O)ccc2-c2cccs2)c1

>  <Name>  (223) 
nan

>  <Pocket>  (223) 
nan

>  <ATP_Site>  (223) 
nan

>  <Peripheral>  (223) 
nan

>  <Num_H_Atoms_ProtBoundConf>  (223) 
nan

>  <Num_Resolved_Atoms>  (223) 
nan

>  <Num_Not_Resolved_Atoms>  (223) 
nan

$$$$
CHEMBL1583717
     RDKit          3D

  0  0  0  0  0  0  0  0  0  0999 V3000
M  V30 BEGIN CTAB
M  V30 COUNTS 56 59 0 0 0
M  V30 BEGIN ATOM
M  V30 1 C 4.624658 -1.749354 2.686572 0
M  V30 2 C 5.541243 -1.484166 1.506468 0
M  V30 3 O 4.935082 -0.621537 0.556917 0
M  V30 4 C 4.558235 0.643129 0.958940 0
M  V30 5 O 4.693730 1.136944 2.106670 0
M  V30 6 N 3.945547 1.514081 -0.002138 0
M  V30 7 C 3.533951 2.853172 0.379511 0
M  V30 8 C 2.092657 3.122091 0.096443 0
M  V30 9 C 1.436584 2.148789 -0.821220 0
M  V30 10 N 1.037482 0.903626 -0.208483 0
M  V30 11 C -0.308939 0.434790 -0.219850 0
M  V30 12 O -1.287720 1.019859 -0.743799 0
M  V30 13 C -0.601274 -0.841198 0.431665 0
M  V30 14 C 0.276558 -1.708201 1.092236 0
M  V30 15 N -0.447959 -2.764042 1.533644 0
M  V30 16 N -1.725876 -2.625953 1.198068 0
M  V30 17 C -1.825652 -1.463855 0.530629 0
M  V30 18 N -3.088715 -1.082056 0.062331 0
M  V30 19 C -4.303202 -1.553798 0.692845 0
M  V30 20 C -5.360807 -1.888658 -0.325457 0
M  V30 21 C -5.651225 -1.078233 -1.386722 0
M  V30 22 C -6.667507 -1.768152 -2.046343 0
M  V30 23 C -6.937806 -2.941072 -1.364738 0
M  V30 24 O -6.115562 -2.962202 -0.329248 0
M  V30 25 C -4.104960 -2.641287 1.689890 0
M  V30 26 C -2.875962 -3.477536 1.439524 0
M  V30 27 C -2.604482 -4.384544 2.598516 0
M  V30 28 F -3.671510 -5.206583 2.857619 0
M  V30 29 F -2.233276 -3.683359 3.738174 0
M  V30 30 F -1.535328 -5.207479 2.236943 0
M  V30 31 C 2.436481 1.795835 -1.919363 0
M  V30 32 C 3.680250 1.183080 -1.383101 0
M  V30 33 H 3.691272 -2.253301 2.321366 0
M  V30 34 H 5.150290 -2.500879 3.309192 0
M  V30 35 H 4.395888 -0.861947 3.281062 0
M  V30 36 H 5.802372 -2.446652 1.054499 0
M  V30 37 H 6.421491 -0.946394 1.938758 0
M  V30 38 H 3.817869 3.043232 1.435597 0
M  V30 39 H 4.203856 3.533435 -0.212168 0
M  V30 40 H 1.523364 3.295707 1.037523 0
M  V30 41 H 2.037609 4.121765 -0.427389 0
M  V30 42 H 0.558167 2.619924 -1.261235 0
M  V30 43 H 1.761163 0.318074 0.264097 0
M  V30 44 H 1.335840 -1.519989 1.201821 0
M  V30 45 H -3.205591 -0.449236 -0.750806 0
M  V30 46 H -4.692078 -0.662471 1.266995 0
M  V30 47 H -5.230422 -0.137545 -1.680983 0
M  V30 48 H -7.187503 -1.477010 -2.941813 0
M  V30 49 H -7.691671 -3.686320 -1.651800 0
M  V30 50 H -4.971728 -3.351991 1.548960 0
M  V30 51 H -4.105845 -2.332916 2.741968 0
M  V30 52 H -3.090030 -4.136186 0.564459 0
M  V30 53 H 1.890480 1.075069 -2.587713 0
M  V30 54 H 2.609074 2.700253 -2.528098 0
M  V30 55 H 3.613682 0.080484 -1.459714 0
M  V30 56 H 4.541255 1.546896 -1.984878 0
M  V30 END ATOM
M  V30 BEGIN BOND
M  V30 1 1 1 2
M  V30 2 1 2 3
M  V30 3 1 3 4
M  V30 4 2 4 5
M  V30 5 1 4 6
M  V30 6 1 6 7
M  V30 7 1 7 8
M  V30 8 1 8 9
M  V30 9 1 9 10
M  V30 10 1 10 11
M  V30 11 2 11 12
M  V30 12 1 11 13
M  V30 13 1 13 14
M  V30 14 2 14 15
M  V30 15 1 15 16
M  V30 16 1 16 17
M  V30 17 1 17 18
M  V30 18 1 18 19
M  V30 19 1 19 20
M  V30 20 2 20 21
M  V30 21 1 21 22
M  V30 22 2 22 23
M  V30 23 1 23 24
M  V30 24 1 19 25
M  V30 25 1 25 26
M  V30 26 1 26 27
M  V30 27 1 27 28
M  V30 28 1 27 29
M  V30 29 1 27 30
M  V30 30 1 9 31
M  V30 31 1 31 32
M  V30 32 1 32 6
M  V30 33 2 17 13
M  V30 34 1 24 20
M  V30 35 1 26 16
M  V30 36 1 1 33
M  V30 37 1 1 34
M  V30 38 1 1 35
M  V30 39 1 2 36
M  V30 40 1 2 37
M  V30 41 1 7 38
M  V30 42 1 7 39
M  V30 43 1 8 40
M  V30 44 1 8 41
M  V30 45 1 9 42
M  V30 46 1 10 43
M  V30 47 1 14 44
M  V30 48 1 18 45
M  V30 49 1 19 46
M  V30 50 1 21 47
M  V30 51 1 22 48
M  V30 52 1 23 49
M  V30 53 1 25 50
M  V30 54 1 25 51
M  V30 55 1 26 52
M  V30 56 1 31 53
M  V30 57 1 31 54
M  V30 58 1 32 55
M  V30 59 1 32 56
M  V30 END BOND
M  V30 END CTAB
M  END
>  <Dataset>  (224) 
ChEMBL_Kinases

>  <Ligand_Instance>  (224) 
nan

>  <PDB_ID>  (224) 
nan

>  <Standardized_SMILES>  (224) 
CCOC(=O)N1CCC(NC(=O)c2cnn3c2NC(c2ccco2)CC3C(F)(F)F)CC1

>  <Name>  (224) 
nan

>  <Pocket>  (224) 
nan

>  <ATP_Site>  (224) 
nan

>  <Peripheral>  (224) 
nan

>  <Num_H_Atoms_ProtBoundConf>  (224) 
nan

>  <Num_Resolved_Atoms>  (224) 
nan

>  <Num_Not_Resolved_Atoms>  (224) 
nan

$$$$
CHEMBL1583596
     RDKit          3D

  0  0  0  0  0  0  0  0  0  0999 V3000
M  V30 BEGIN CTAB
M  V30 COUNTS 47 50 0 0 0
M  V30 BEGIN ATOM
M  V30 1 C 1.617974 -2.488939 3.432775 0
M  V30 2 C 1.594656 -3.145109 2.074205 0
M  V30 3 C 2.450308 -2.412203 1.084929 0
M  V30 4 C 3.666446 -2.918911 0.732030 0
M  V30 5 C 4.471285 -2.271755 -0.170121 0
M  V30 6 C 4.095066 -1.097315 -0.753860 0
M  V30 7 C 2.858611 -0.628464 -0.363859 0
M  V30 8 C 1.982796 -1.221412 0.542774 0
M  V30 9 N 0.725292 -0.666397 0.852880 0
M  V30 10 C 0.035439 0.521321 0.458103 0
M  V30 11 C 0.630321 1.688017 1.150280 0
M  V30 12 C 1.826262 2.353031 1.285098 0
M  V30 13 C 2.053990 3.470636 2.053517 0
M  V30 14 C 1.019090 4.017259 2.777917 0
M  V30 15 C -0.220887 3.420651 2.707684 0
M  V30 16 C -0.375425 2.297143 1.912551 0
M  V30 17 C -1.648182 1.597656 1.772319 0
M  V30 18 O -2.773987 1.798722 2.264370 0
M  V30 19 N -1.350510 0.531384 0.880643 0
M  V30 20 C -2.251056 -0.461205 0.399926 0
M  V30 21 C -3.004440 -0.345176 -0.750137 0
M  V30 22 C -3.855752 -1.357882 -1.144211 0
M  V30 23 C -4.658156 -1.215532 -2.385363 0
M  V30 24 C -3.896426 -2.466600 -0.323706 0
M  V30 25 C -3.138505 -2.574256 0.826084 0
M  V30 26 N -2.305629 -1.562076 1.194710 0
M  V30 27 H 0.594900 -2.547742 3.853688 0
M  V30 28 H 2.330406 -2.984453 4.123372 0
M  V30 29 H 1.967804 -1.436271 3.303521 0
M  V30 30 H 0.562868 -3.250554 1.725522 0
M  V30 31 H 2.018676 -4.183160 2.212226 0
M  V30 32 H 3.964371 -3.856683 1.199187 0
M  V30 33 H 5.415512 -2.727142 -0.401672 0
M  V30 34 H 4.700740 -0.572245 -1.458409 0
M  V30 35 H 2.558366 0.308538 -0.846045 0
M  V30 36 H 0.166613 -1.264938 1.533419 0
M  V30 37 H 0.111868 0.632121 -0.655643 0
M  V30 38 H 2.688192 2.005553 0.762247 0
M  V30 39 H 3.021690 3.947163 2.116522 0
M  V30 40 H 1.188484 4.893530 3.383421 0
M  V30 41 H -0.997428 3.886054 3.293118 0
M  V30 42 H -2.902732 0.568660 -1.331034 0
M  V30 43 H -4.755708 -0.121641 -2.614315 0
M  V30 44 H -5.653282 -1.612420 -2.193865 0
M  V30 45 H -4.184626 -1.735046 -3.244013 0
M  V30 46 H -4.559736 -3.281900 -0.609724 0
M  V30 47 H -3.195473 -3.474278 1.458536 0
M  V30 END ATOM
M  V30 BEGIN BOND
M  V30 1 1 1 2
M  V30 2 1 2 3
M  V30 3 2 3 4
M  V30 4 1 4 5
M  V30 5 2 5 6
M  V30 6 1 6 7
M  V30 7 2 7 8
M  V30 8 1 8 9
M  V30 9 1 9 10
M  V30 10 1 10 11
M  V30 11 2 11 12
M  V30 12 1 12 13
M  V30 13 2 13 14
M  V30 14 1 14 15
M  V30 15 2 15 16
M  V30 16 1 16 17
M  V30 17 2 17 18
M  V30 18 1 17 19
M  V30 19 1 19 20
M  V30 20 2 20 21
M  V30 21 1 21 22
M  V30 22 1 22 23
M  V30 23 2 22 24
M  V30 24 1 24 25
M  V30 25 2 25 26
M  V30 26 1 8 3
M  V30 27 1 19 10
M  V30 28 1 26 20
M  V30 29 1 16 11
M  V30 30 1 1 27
M  V30 31 1 1 28
M  V30 32 1 1 29
M  V30 33 1 2 30
M  V30 34 1 2 31
M  V30 35 1 4 32
M  V30 36 1 5 33
M  V30 37 1 6 34
M  V30 38 1 7 35
M  V30 39 1 9 36
M  V30 40 1 10 37
M  V30 41 1 12 38
M  V30 42 1 13 39
M  V30 43 1 14 40
M  V30 44 1 15 41
M  V30 45 1 21 42
M  V30 46 1 23 43
M  V30 47 1 23 44
M  V30 48 1 23 45
M  V30 49 1 24 46
M  V30 50 1 25 47
M  V30 END BOND
M  V30 END CTAB
M  END
>  <Dataset>  (225) 
ChEMBL_Kinases

>  <Ligand_Instance>  (225) 
nan

>  <PDB_ID>  (225) 
nan

>  <Standardized_SMILES>  (225) 
CCc1ccccc1NC1c2ccccc2C(=O)N1c1cc(C)ccn1

>  <Name>  (225) 
nan

>  <Pocket>  (225) 
nan

>  <ATP_Site>  (225) 
nan

>  <Peripheral>  (225) 
nan

>  <Num_H_Atoms_ProtBoundConf>  (225) 
nan

>  <Num_Resolved_Atoms>  (225) 
nan

>  <Num_Not_Resolved_Atoms>  (225) 
nan

$$$$
CHEMBL1583569
     RDKit          3D

  0  0  0  0  0  0  0  0  0  0999 V3000
M  V30 BEGIN CTAB
M  V30 COUNTS 45 47 0 0 0
M  V30 BEGIN ATOM
M  V30 1 C 0.984011 -4.169351 0.487210 0
M  V30 2 C 0.884593 -2.638312 0.436622 0
M  V30 3 C -0.004306 -2.239375 -0.698557 0
M  V30 4 C 0.641857 -2.462318 -2.048121 0
M  V30 5 C 2.010659 -1.856650 -2.086311 0
M  V30 6 C 2.838710 -2.547294 -0.992642 0
M  V30 7 N 2.250486 -2.128142 0.256758 0
M  V30 8 C 2.787053 -1.338978 1.286808 0
M  V30 9 O 3.743448 -1.376318 0.485161 0
M  V30 10 C 3.307407 -0.525511 2.373867 0
M  V30 11 S 3.358539 1.251579 2.034934 0
M  V30 12 C 1.719065 1.913196 1.859446 0
M  V30 13 N 1.752862 3.238666 1.600199 0
M  V30 14 C 0.626432 3.972817 1.421045 0
M  V30 15 O 0.626639 5.341805 1.152571 0
M  V30 16 C -0.578244 3.312413 1.513222 0
M  V30 17 C -0.635258 1.963768 1.776650 0
M  V30 18 C -1.876717 1.214901 1.888330 0
M  V30 19 C -1.871844 -0.134349 2.160447 0
M  V30 20 C -2.976466 -0.922869 2.280226 0
M  V30 21 C -4.191211 -0.293815 2.110852 0
M  V30 22 C -4.247475 1.061957 1.835860 0
M  V30 23 C -3.094036 1.829340 1.721752 0
M  V30 24 N 0.527370 1.292719 1.944527 0
M  V30 25 H 0.271881 -4.592654 1.225477 0
M  V30 26 H 0.675159 -4.588431 -0.503703 0
M  V30 27 H 2.003929 -4.471593 0.766424 0
M  V30 28 H 0.430412 -2.352176 1.383270 0
M  V30 29 H -0.340183 -1.201954 -0.648556 0
M  V30 30 H -0.903869 -2.921267 -0.682146 0
M  V30 31 H 0.015797 -1.948949 -2.811311 0
M  V30 32 H 0.663324 -3.544360 -2.328643 0
M  V30 33 H 2.459241 -1.984835 -3.090326 0
M  V30 34 H 1.928293 -0.795425 -1.766543 0
M  V30 35 H 3.889076 -2.296246 -1.129356 0
M  V30 36 H 2.637260 -3.642369 -1.109444 0
M  V30 37 H 2.591543 -0.646126 3.235396 0
M  V30 38 H 4.278093 -0.895342 2.809049 0
M  V30 39 H 0.517521 5.919112 2.001738 0
M  V30 40 H -1.479230 3.889335 1.370908 0
M  V30 41 H -0.901131 -0.593403 2.288512 0
M  V30 42 H -2.952358 -1.983206 2.494540 0
M  V30 43 H -5.104948 -0.866105 2.194307 0
M  V30 44 H -5.226920 1.513242 1.711466 0
M  V30 45 H -3.207627 2.869867 1.508231 0
M  V30 END ATOM
M  V30 BEGIN BOND
M  V30 1 1 1 2
M  V30 2 1 2 3
M  V30 3 1 3 4
M  V30 4 1 4 5
M  V30 5 1 5 6
M  V30 6 1 6 7
M  V30 7 1 7 8
M  V30 8 2 8 9
M  V30 9 1 8 10
M  V30 10 1 10 11
M  V30 11 1 11 12
M  V30 12 2 12 13
M  V30 13 1 13 14
M  V30 14 1 14 15
M  V30 15 2 14 16
M  V30 16 1 16 17
M  V30 17 1 17 18
M  V30 18 2 18 19
M  V30 19 1 19 20
M  V30 20 2 20 21
M  V30 21 1 21 22
M  V30 22 2 22 23
M  V30 23 2 17 24
M  V30 24 1 7 2
M  V30 25 1 24 12
M  V30 26 1 23 18
M  V30 27 1 1 25
M  V30 28 1 1 26
M  V30 29 1 1 27
M  V30 30 1 2 28
M  V30 31 1 3 29
M  V30 32 1 3 30
M  V30 33 1 4 31
M  V30 34 1 4 32
M  V30 35 1 5 33
M  V30 36 1 5 34
M  V30 37 1 6 35
M  V30 38 1 6 36
M  V30 39 1 10 37
M  V30 40 1 10 38
M  V30 41 1 15 39
M  V30 42 1 16 40
M  V30 43 1 19 41
M  V30 44 1 20 42
M  V30 45 1 21 43
M  V30 46 1 22 44
M  V30 47 1 23 45
M  V30 END BOND
M  V30 END CTAB
M  END
>  <Dataset>  (226) 
ChEMBL_Kinases

>  <Ligand_Instance>  (226) 
nan

>  <PDB_ID>  (226) 
nan

>  <Standardized_SMILES>  (226) 
CC1CCCCN1C(=O)CSc1nc(O)cc(-c2ccccc2)n1

>  <Name>  (226) 
nan

>  <Pocket>  (226) 
nan

>  <ATP_Site>  (226) 
nan

>  <Peripheral>  (226) 
nan

>  <Num_H_Atoms_ProtBoundConf>  (226) 
nan

>  <Num_Resolved_Atoms>  (226) 
nan

>  <Num_Not_Resolved_Atoms>  (226) 
nan

$$$$
CHEMBL1583337
     RDKit          3D

  0  0  0  0  0  0  0  0  0  0999 V3000
M  V30 BEGIN CTAB
M  V30 COUNTS 27 29 0 0 0
M  V30 BEGIN ATOM
M  V30 1 C -1.370956 -1.913796 2.242296 0
M  V30 2 C -1.048959 -0.446579 2.086110 0
M  V30 3 N 0.366754 -0.207979 1.838465 0 CHG=1 VAL=4
M  V30 4 C 1.037145 -0.008059 2.946360 0
M  V30 5 C 0.667335 -0.001516 4.377750 0
M  V30 6 S 2.768027 0.313012 2.538765 0
M  V30 7 C 2.425503 0.141021 0.833523 0
M  V30 8 S 3.174154 0.184971 -0.773786 0
M  V30 9 C 1.655084 -0.174016 -1.578532 0
M  V30 10 C 1.556403 -0.296871 -2.952470 0
M  V30 11 C 0.328327 -0.593669 -3.489000 0
M  V30 12 C -0.709523 -0.745553 -2.607996 0
M  V30 13 C -0.494159 -0.602314 -1.291844 0
M  V30 14 C 0.692943 -0.305533 -0.655966 0
M  V30 15 C 1.025667 -0.149160 0.666339 0
M  V30 16 H -0.535863 -2.560797 1.884848 0
M  V30 17 H -1.602495 -2.204705 3.287239 0
M  V30 18 H -2.313094 -2.114911 1.674959 0
M  V30 19 H -1.407739 0.027192 3.035210 0
M  V30 20 H -1.660703 0.005859 1.272614 0
M  V30 21 H 1.504987 -0.281002 5.017708 0
M  V30 22 H -0.214051 -0.666051 4.497286 0
M  V30 23 H 0.434867 1.068794 4.648206 0
M  V30 24 H 2.398971 -0.169929 -3.615163 0
M  V30 25 H 0.264644 -0.686171 -4.555338 0
M  V30 26 H -1.654555 -0.979026 -3.082438 0
M  V30 27 H -1.443053 -0.777577 -0.766910 0
M  V30 END ATOM
M  V30 BEGIN BOND
M  V30 1 1 1 2
M  V30 2 1 2 3
M  V30 3 2 3 4
M  V30 4 1 4 5
M  V30 5 1 4 6
M  V30 6 1 6 7
M  V30 7 1 7 8
M  V30 8 1 8 9
M  V30 9 2 9 10
M  V30 10 1 10 11
M  V30 11 2 11 12
M  V30 12 1 12 13
M  V30 13 2 13 14
M  V30 14 1 14 15
M  V30 15 1 15 3
M  V30 16 2 15 7
M  V30 17 1 14 9
M  V30 18 1 1 16
M  V30 19 1 1 17
M  V30 20 1 1 18
M  V30 21 1 2 19
M  V30 22 1 2 20
M  V30 23 1 5 21
M  V30 24 1 5 22
M  V30 25 1 5 23
M  V30 26 1 10 24
M  V30 27 1 11 25
M  V30 28 1 12 26
M  V30 29 1 13 27
M  V30 END BOND
M  V30 END CTAB
M  END
>  <Dataset>  (227) 
ChEMBL_Kinases

>  <Ligand_Instance>  (227) 
nan

>  <PDB_ID>  (227) 
nan

>  <Standardized_SMILES>  (227) 
CC[n+]1c(C)sc2sc3ccccc3c21

>  <Name>  (227) 
nan

>  <Pocket>  (227) 
nan

>  <ATP_Site>  (227) 
nan

>  <Peripheral>  (227) 
nan

>  <Num_H_Atoms_ProtBoundConf>  (227) 
nan

>  <Num_Resolved_Atoms>  (227) 
nan

>  <Num_Not_Resolved_Atoms>  (227) 
nan

$$$$
CHEMBL1583327
     RDKit          3D

  0  0  0  0  0  0  0  0  0  0999 V3000
M  V30 BEGIN CTAB
M  V30 COUNTS 42 44 0 0 0
M  V30 BEGIN ATOM
M  V30 1 C -0.133342 -4.785169 1.583598 0
M  V30 2 C -0.701198 -3.433956 2.019977 0
M  V30 3 O 0.015068 -2.421464 1.350606 0
M  V30 4 C 0.823787 -1.509186 1.990496 0
M  V30 5 C 1.148962 -1.319124 3.316591 0
M  V30 6 C 2.004465 -0.302103 3.679190 0
M  V30 7 C 2.575837 0.567513 2.770209 0
M  V30 8 C 2.251140 0.379093 1.437846 0
M  V30 9 N 2.862292 1.297022 0.538958 0
M  V30 10 C 4.101122 1.200870 -0.141861 0
M  V30 11 O 4.919350 0.247638 -0.072659 0
M  V30 12 C 4.468181 2.320684 -1.013248 0
M  V30 13 C 3.858451 3.459545 -1.314665 0
M  V30 14 C 4.407551 4.369866 -2.172125 0
M  V30 15 C 5.693953 3.973469 -2.706171 0
M  V30 16 S 5.961182 2.296234 -1.887076 0
M  V30 17 C 1.395186 -0.635172 1.055144 0
M  V30 18 C -2.157406 -3.368576 1.784105 0
M  V30 19 O -2.695082 -4.335561 2.423447 0
M  V30 20 C -3.044753 -2.498504 1.031865 0
M  V30 21 C -4.376818 -2.804896 1.084240 0
M  V30 22 C -5.240950 -1.973108 0.363098 0
M  V30 23 C -4.821644 -0.883306 -0.381258 0
M  V30 24 C -3.471242 -0.589521 -0.422027 0
M  V30 25 C -2.632019 -1.414669 0.291034 0
M  V30 26 H -0.926410 -5.260471 0.948972 0
M  V30 27 H 0.822359 -4.649242 1.031165 0
M  V30 28 H 0.028313 -5.475114 2.424692 0
M  V30 29 H -0.534767 -3.406187 3.120682 0
M  V30 30 H 0.674295 -2.022142 3.954277 0
M  V30 31 H 2.197341 -0.236877 4.752974 0
M  V30 32 H 3.231989 1.325845 3.179583 0
M  V30 33 H 2.232569 2.121740 0.432570 0
M  V30 34 H 2.899217 3.637914 -0.848077 0
M  V30 35 H 3.965644 5.312164 -2.458736 0
M  V30 36 H 6.240356 4.684136 -3.445605 0
M  V30 37 H 1.249154 -0.641481 -0.018274 0
M  V30 38 H -4.828949 -3.619149 1.622458 0
M  V30 39 H -6.310391 -2.191209 0.384717 0
M  V30 40 H -5.578244 -0.300608 -0.905999 0
M  V30 41 H -3.124733 0.258005 -0.998278 0
M  V30 42 H -1.584923 -1.167488 0.245279 0
M  V30 END ATOM
M  V30 BEGIN BOND
M  V30 1 1 1 2
M  V30 2 1 2 3
M  V30 3 1 3 4
M  V30 4 2 4 5
M  V30 5 1 5 6
M  V30 6 2 6 7
M  V30 7 1 7 8
M  V30 8 1 8 9
M  V30 9 1 9 10
M  V30 10 2 10 11
M  V30 11 1 10 12
M  V30 12 2 12 13
M  V30 13 1 13 14
M  V30 14 2 14 15
M  V30 15 1 15 16
M  V30 16 2 8 17
M  V30 17 1 2 18
M  V30 18 2 18 19
M  V30 19 1 18 20
M  V30 20 2 20 21
M  V30 21 1 21 22
M  V30 22 2 22 23
M  V30 23 1 23 24
M  V30 24 2 24 25
M  V30 25 1 17 4
M  V30 26 1 25 20
M  V30 27 1 16 12
M  V30 28 1 1 26
M  V30 29 1 1 27
M  V30 30 1 1 28
M  V30 31 1 2 29
M  V30 32 1 5 30
M  V30 33 1 6 31
M  V30 34 1 7 32
M  V30 35 1 9 33
M  V30 36 1 13 34
M  V30 37 1 14 35
M  V30 38 1 15 36
M  V30 39 1 17 37
M  V30 40 1 21 38
M  V30 41 1 22 39
M  V30 42 1 23 40
M  V30 43 1 24 41
M  V30 44 1 25 42
M  V30 END BOND
M  V30 END CTAB
M  END
>  <Dataset>  (228) 
ChEMBL_Kinases

>  <Ligand_Instance>  (228) 
nan

>  <PDB_ID>  (228) 
nan

>  <Standardized_SMILES>  (228) 
CC(Oc1cccc(NC(=O)c2cccs2)c1)C(=O)c1ccccc1

>  <Name>  (228) 
nan

>  <Pocket>  (228) 
nan

>  <ATP_Site>  (228) 
nan

>  <Peripheral>  (228) 
nan

>  <Num_H_Atoms_ProtBoundConf>  (228) 
nan

>  <Num_Resolved_Atoms>  (228) 
nan

>  <Num_Not_Resolved_Atoms>  (228) 
nan

$$$$
CHEMBL1587932
     RDKit          3D

  0  0  0  0  0  0  0  0  0  0999 V3000
M  V30 BEGIN CTAB
M  V30 COUNTS 50 53 0 0 0
M  V30 BEGIN ATOM
M  V30 1 C -3.371635 -3.624598 4.083057 0
M  V30 2 O -2.989645 -3.631954 2.706401 0
M  V30 3 C -2.005170 -2.713304 2.357349 0
M  V30 4 C -1.408313 -1.832929 3.249173 0
M  V30 5 C -0.440716 -0.966234 2.782589 0
M  V30 6 C -0.023355 -0.918826 1.467632 0
M  V30 7 C 1.003809 0.012450 1.010605 0
M  V30 8 N 1.627728 0.894337 1.811736 0
M  V30 9 C 2.527879 1.612228 1.076123 0
M  V30 10 C 3.406853 2.622734 1.413675 0
M  V30 11 C 4.208578 3.165846 0.430052 0
M  V30 12 C 5.171256 4.257214 0.747350 0
M  V30 13 C 4.381698 5.400854 1.352794 0
M  V30 14 C 6.081770 3.746127 1.870133 0
M  V30 15 C 4.099491 2.675336 -0.857351 0
M  V30 16 C 3.213274 1.662746 -1.176396 0
M  V30 17 C 2.403134 1.106218 -0.208761 0
M  V30 18 O 1.482800 0.154023 -0.201055 0
M  V30 19 C -0.631779 -1.803243 0.602931 0
M  V30 20 C -1.619494 -2.706506 1.015944 0
M  V30 21 N -2.220123 -3.602253 0.085007 0
M  V30 22 C -3.379276 -3.156579 -0.589436 0
M  V30 23 O -3.712044 -1.998590 -0.251461 0
M  V30 24 C -4.041470 -4.026365 -1.555012 0
M  V30 25 C -3.650697 -5.305257 -1.910143 0
M  V30 26 C -4.374880 -6.009564 -2.838679 0
M  V30 27 C -5.502354 -5.411747 -3.409863 0
M  V30 28 N -5.891952 -4.176112 -3.076141 0
M  V30 29 C -5.177167 -3.487800 -2.163192 0
M  V30 30 H -2.446567 -3.812658 4.665079 0
M  V30 31 H -3.774450 -2.616549 4.367416 0
M  V30 32 H -4.128235 -4.401416 4.317966 0
M  V30 33 H -1.723604 -1.858073 4.278926 0
M  V30 34 H 0.024463 -0.280629 3.475814 0
M  V30 35 H 3.490729 3.004852 2.420493 0
M  V30 36 H 5.746602 4.601597 -0.112555 0
M  V30 37 H 3.611296 5.720708 0.628583 0
M  V30 38 H 3.898993 5.082997 2.297894 0
M  V30 39 H 5.027221 6.296667 1.509069 0
M  V30 40 H 5.415024 3.732824 2.771657 0
M  V30 41 H 6.898101 4.453385 2.031561 0
M  V30 42 H 6.413124 2.721049 1.621866 0
M  V30 43 H 4.716940 3.076543 -1.673130 0
M  V30 44 H 3.116139 1.268424 -2.177953 0
M  V30 45 H -0.371538 -1.837225 -0.433770 0
M  V30 46 H -1.783895 -4.538214 -0.057657 0
M  V30 47 H -2.775906 -5.684096 -1.423098 0
M  V30 48 H -4.016113 -7.002487 -3.071188 0
M  V30 49 H -6.038042 -6.020515 -4.142014 0
M  V30 50 H -5.566958 -2.486871 -1.950753 0
M  V30 END ATOM
M  V30 BEGIN BOND
M  V30 1 1 1 2
M  V30 2 1 2 3
M  V30 3 2 3 4
M  V30 4 1 4 5
M  V30 5 2 5 6
M  V30 6 1 6 7
M  V30 7 2 7 8
M  V30 8 1 8 9
M  V30 9 2 9 10
M  V30 10 1 10 11
M  V30 11 1 11 12
M  V30 12 1 12 13
M  V30 13 1 12 14
M  V30 14 2 11 15
M  V30 15 1 15 16
M  V30 16 2 16 17
M  V30 17 1 17 18
M  V30 18 1 6 19
M  V30 19 2 19 20
M  V30 20 1 20 21
M  V30 21 1 21 22
M  V30 22 2 22 23
M  V30 23 1 22 24
M  V30 24 2 24 25
M  V30 25 1 25 26
M  V30 26 2 26 27
M  V30 27 1 27 28
M  V30 28 2 28 29
M  V30 29 1 20 3
M  V30 30 1 29 24
M  V30 31 1 18 7
M  V30 32 1 17 9
M  V30 33 1 1 30
M  V30 34 1 1 31
M  V30 35 1 1 32
M  V30 36 1 4 33
M  V30 37 1 5 34
M  V30 38 1 10 35
M  V30 39 1 12 36
M  V30 40 1 13 37
M  V30 41 1 13 38
M  V30 42 1 13 39
M  V30 43 1 14 40
M  V30 44 1 14 41
M  V30 45 1 14 42
M  V30 46 1 15 43
M  V30 47 1 16 44
M  V30 48 1 19 45
M  V30 49 1 21 46
M  V30 50 1 25 47
M  V30 51 1 26 48
M  V30 52 1 27 49
M  V30 53 1 29 50
M  V30 END BOND
M  V30 END CTAB
M  END
>  <Dataset>  (229) 
ChEMBL_Kinases

>  <Ligand_Instance>  (229) 
nan

>  <PDB_ID>  (229) 
nan

>  <Standardized_SMILES>  (229) 
COc1ccc(-c2nc3cc(C(C)C)ccc3o2)cc1NC(=O)c1cccnc1

>  <Name>  (229) 
nan

>  <Pocket>  (229) 
nan

>  <ATP_Site>  (229) 
nan

>  <Peripheral>  (229) 
nan

>  <Num_H_Atoms_ProtBoundConf>  (229) 
nan

>  <Num_Resolved_Atoms>  (229) 
nan

>  <Num_Not_Resolved_Atoms>  (229) 
nan

$$$$
CHEMBL1582067
     RDKit          3D

  0  0  0  0  0  0  0  0  0  0999 V3000
M  V30 BEGIN CTAB
M  V30 COUNTS 50 53 0 0 0
M  V30 BEGIN ATOM
M  V30 1 C 5.046565 -5.973034 3.050616 0
M  V30 2 C 5.696930 -5.314009 1.898661 0
M  V30 3 O 6.717464 -5.900104 1.424426 0
M  V30 4 C 5.182398 -4.056438 1.345984 0
M  V30 5 C 4.086922 -3.424433 1.852959 0
M  V30 6 C 3.637341 -2.249398 1.306919 0
M  V30 7 C 4.256605 -1.649364 0.231863 0
M  V30 8 O 3.941202 -0.490771 -0.426746 0
M  V30 9 C 2.886955 0.381484 -0.158330 0
M  V30 10 C 1.547987 -0.255800 -0.271378 0
M  V30 11 O 1.215887 -1.451098 -0.572780 0
M  V30 12 C 0.384044 0.586687 -0.001574 0
M  V30 13 C 0.359564 1.939376 0.355890 0
M  V30 14 C -0.936803 2.380303 0.525340 0
M  V30 15 C -1.347559 3.743667 0.901381 0
M  V30 16 N -1.714451 1.325820 0.279453 0
M  V30 17 C -3.157480 1.287016 0.328514 0
M  V30 18 C -3.701883 0.816701 1.507344 0
M  V30 19 C -5.064505 0.707682 1.737976 0
M  V30 20 C -5.905773 1.103223 0.701849 0
M  V30 21 C -5.365372 1.575278 -0.481608 0
M  V30 22 C -4.008346 1.674406 -0.687287 0
M  V30 23 O -6.427695 1.890313 -1.320424 0
M  V30 24 C -7.537196 1.109390 -0.862477 0
M  V30 25 O -7.291677 1.144328 0.549559 0
M  V30 26 C -0.947734 0.240852 -0.037960 0
M  V30 27 C -1.504932 -1.110162 -0.371138 0
M  V30 28 C 5.380139 -2.308845 -0.278779 0
M  V30 29 C 5.843715 -3.498581 0.266268 0
M  V30 30 H 5.498442 -5.650282 4.023516 0
M  V30 31 H 3.952292 -5.784544 3.110008 0
M  V30 32 H 5.183284 -7.083808 3.010795 0
M  V30 33 H 3.549358 -3.828290 2.689641 0
M  V30 34 H 2.776487 -1.709416 1.670848 0
M  V30 35 H 2.987118 0.936250 0.798557 0
M  V30 36 H 2.910974 1.171905 -0.953508 0
M  V30 37 H 1.254587 2.528704 0.474453 0
M  V30 38 H -2.341115 4.022698 0.450543 0
M  V30 39 H -1.365307 3.858227 2.015851 0
M  V30 40 H -0.633267 4.506352 0.515116 0
M  V30 41 H -3.090212 0.495775 2.345441 0
M  V30 42 H -5.472389 0.336436 2.669068 0
M  V30 43 H -3.547293 2.031133 -1.580000 0
M  V30 44 H -8.507871 1.532787 -1.130846 0
M  V30 45 H -7.391077 0.046332 -1.181251 0
M  V30 46 H -2.588697 -1.128911 -0.179238 0
M  V30 47 H -0.993772 -1.860296 0.282972 0
M  V30 48 H -1.229253 -1.316137 -1.416618 0
M  V30 49 H 5.966541 -1.958265 -1.117495 0
M  V30 50 H 6.710376 -4.012578 -0.123113 0
M  V30 END ATOM
M  V30 BEGIN BOND
M  V30 1 1 1 2
M  V30 2 2 2 3
M  V30 3 1 2 4
M  V30 4 2 4 5
M  V30 5 1 5 6
M  V30 6 2 6 7
M  V30 7 1 7 8
M  V30 8 1 8 9
M  V30 9 1 9 10
M  V30 10 2 10 11
M  V30 11 1 10 12
M  V30 12 1 12 13
M  V30 13 2 13 14
M  V30 14 1 14 15
M  V30 15 1 14 16
M  V30 16 1 16 17
M  V30 17 2 17 18
M  V30 18 1 18 19
M  V30 19 2 19 20
M  V30 20 1 20 21
M  V30 21 2 21 22
M  V30 22 1 21 23
M  V30 23 1 23 24
M  V30 24 1 24 25
M  V30 25 1 16 26
M  V30 26 1 26 27
M  V30 27 1 7 28
M  V30 28 2 28 29
M  V30 29 1 29 4
M  V30 30 2 26 12
M  V30 31 1 22 17
M  V30 32 1 25 20
M  V30 33 1 1 30
M  V30 34 1 1 31
M  V30 35 1 1 32
M  V30 36 1 5 33
M  V30 37 1 6 34
M  V30 38 1 9 35
M  V30 39 1 9 36
M  V30 40 1 13 37
M  V30 41 1 15 38
M  V30 42 1 15 39
M  V30 43 1 15 40
M  V30 44 1 18 41
M  V30 45 1 19 42
M  V30 46 1 22 43
M  V30 47 1 24 44
M  V30 48 1 24 45
M  V30 49 1 27 46
M  V30 50 1 27 47
M  V30 51 1 27 48
M  V30 52 1 28 49
M  V30 53 1 29 50
M  V30 END BOND
M  V30 END CTAB
M  END
>  <Dataset>  (230) 
ChEMBL_Kinases

>  <Ligand_Instance>  (230) 
nan

>  <PDB_ID>  (230) 
nan

>  <Standardized_SMILES>  (230) 
CC(=O)c1ccc(OCC(=O)c2cc(C)n(-c3ccc4c(c3)OCO4)c2C)cc1

>  <Name>  (230) 
nan

>  <Pocket>  (230) 
nan

>  <ATP_Site>  (230) 
nan

>  <Peripheral>  (230) 
nan

>  <Num_H_Atoms_ProtBoundConf>  (230) 
nan

>  <Num_Resolved_Atoms>  (230) 
nan

>  <Num_Not_Resolved_Atoms>  (230) 
nan

$$$$
CHEMBL158208
     RDKit          3D

  0  0  0  0  0  0  0  0  0  0999 V3000
M  V30 BEGIN CTAB
M  V30 COUNTS 36 38 0 0 0
M  V30 BEGIN ATOM
M  V30 1 C 1.174265 -5.813320 -0.399067 0
M  V30 2 O 1.442625 -5.358609 0.935431 0
M  V30 3 C 1.249447 -4.007992 1.236024 0
M  V30 4 C 1.486982 -3.501099 2.496308 0
M  V30 5 C 1.318424 -2.179425 2.866024 0
M  V30 6 C 0.872052 -1.298634 1.875312 0
M  V30 7 C 0.677020 0.104121 2.221826 0
M  V30 8 C -0.251990 0.943667 1.799229 0
M  V30 9 N -1.347840 0.764098 0.885975 0
M  V30 10 C -1.238590 1.367565 -0.396012 0
M  V30 11 C -2.222406 1.280385 -1.384343 0
M  V30 12 C -2.076341 1.884025 -2.625598 0
M  V30 13 C -0.922854 2.591216 -2.888463 0
M  V30 14 C 0.093846 2.730128 -1.982407 0
M  V30 15 Cl 1.571064 3.619629 -2.284086 0
M  V30 16 C -0.113400 2.108876 -0.773912 0
M  V30 17 C -0.059208 2.254684 2.414201 0
M  V30 18 O -0.718445 3.318845 2.281254 0
M  V30 19 N 1.089423 2.167978 3.274421 0
M  V30 20 C 1.542655 0.822502 3.147977 0
M  V30 21 O 2.553061 0.365715 3.769069 0
M  V30 22 C 0.635314 -1.807807 0.615953 0
M  V30 23 C 0.802335 -3.126076 0.243918 0
M  V30 24 H 0.097393 -5.626951 -0.670362 0
M  V30 25 H 1.428090 -6.867197 -0.507341 0
M  V30 26 H 1.753831 -5.167817 -1.086191 0
M  V30 27 H 1.834659 -4.198962 3.257790 0
M  V30 28 H 1.512501 -1.810078 3.859986 0
M  V30 29 H -2.226512 0.233786 1.058110 0
M  V30 30 H -3.113240 0.726126 -1.160983 0
M  V30 31 H -2.867553 1.788754 -3.362737 0
M  V30 32 H -0.817119 3.057826 -3.858592 0
M  V30 33 H 0.650968 2.178876 -0.012378 0
M  V30 34 H 1.517466 2.919355 3.873011 0
M  V30 35 H 0.287773 -1.140893 -0.168756 0
M  V30 36 H 0.597969 -3.450170 -0.755607 0
M  V30 END ATOM
M  V30 BEGIN BOND
M  V30 1 1 1 2
M  V30 2 1 2 3
M  V30 3 2 3 4
M  V30 4 1 4 5
M  V30 5 2 5 6
M  V30 6 1 6 7
M  V30 7 2 7 8
M  V30 8 1 8 9
M  V30 9 1 9 10
M  V30 10 2 10 11
M  V30 11 1 11 12
M  V30 12 2 12 13
M  V30 13 1 13 14
M  V30 14 1 14 15
M  V30 15 2 14 16
M  V30 16 1 8 17
M  V30 17 2 17 18
M  V30 18 1 17 19
M  V30 19 1 19 20
M  V30 20 2 20 21
M  V30 21 1 6 22
M  V30 22 2 22 23
M  V30 23 1 23 3
M  V30 24 1 20 7
M  V30 25 1 16 10
M  V30 26 1 1 24
M  V30 27 1 1 25
M  V30 28 1 1 26
M  V30 29 1 4 27
M  V30 30 1 5 28
M  V30 31 1 9 29
M  V30 32 1 11 30
M  V30 33 1 12 31
M  V30 34 1 13 32
M  V30 35 1 16 33
M  V30 36 1 19 34
M  V30 37 1 22 35
M  V30 38 1 23 36
M  V30 END BOND
M  V30 END CTAB
M  END
>  <Dataset>  (231) 
ChEMBL_Kinases

>  <Ligand_Instance>  (231) 
nan

>  <PDB_ID>  (231) 
nan

>  <Standardized_SMILES>  (231) 
COc1ccc(C2=C(Nc3cccc(Cl)c3)C(=O)NC2=O)cc1

>  <Name>  (231) 
nan

>  <Pocket>  (231) 
nan

>  <ATP_Site>  (231) 
nan

>  <Peripheral>  (231) 
nan

>  <Num_H_Atoms_ProtBoundConf>  (231) 
nan

>  <Num_Resolved_Atoms>  (231) 
nan

>  <Num_Not_Resolved_Atoms>  (231) 
nan

$$$$
CHEMBL1582133
     RDKit          3D

  0  0  0  0  0  0  0  0  0  0999 V3000
M  V30 BEGIN CTAB
M  V30 COUNTS 40 44 0 0 0
M  V30 BEGIN ATOM
M  V30 1 C 1.519860 -0.926244 3.312069 0
M  V30 2 C 1.210894 -2.185995 2.528797 0
M  V30 3 C 0.055070 -2.934579 3.098149 0
M  V30 4 C -1.203303 -2.089153 2.945354 0
M  V30 5 C -1.582652 -1.903001 1.514207 0
M  V30 6 N -1.043963 -1.173375 0.549574 0
M  V30 7 N -1.627243 -1.238768 -0.616997 0
M  V30 8 C -1.370562 -0.645646 -1.814559 0
M  V30 9 C -0.340452 0.297127 -2.236688 0
M  V30 10 N -0.243762 0.797760 -3.497450 0
M  V30 11 N 0.762665 1.623269 -3.600034 0
M  V30 12 C 1.388984 1.723504 -2.436304 0
M  V30 13 C 0.707298 0.896866 -1.573669 0
M  V30 14 C 1.364671 0.971443 -0.267520 0
M  V30 15 C 2.743828 1.515214 -0.575227 0
M  V30 16 C 2.513428 2.386130 -1.769686 0
M  V30 17 N -2.310316 -1.072192 -2.713028 0
M  V30 18 N -3.140186 -1.896561 -2.149013 0
M  V30 19 C -2.758570 -2.023597 -0.873622 0
M  V30 20 S -2.977389 -2.749056 0.827709 0
M  V30 21 C -0.963345 -0.756025 3.538029 0
M  V30 22 C 0.362278 -0.559677 4.220080 0
M  V30 23 H 1.651145 -0.102614 2.585694 0
M  V30 24 H 2.452827 -1.021347 3.892737 0
M  V30 25 H 1.010054 -1.975284 1.472310 0
M  V30 26 H 2.104337 -2.847186 2.616817 0
M  V30 27 H -0.028832 -3.886335 2.541060 0
M  V30 28 H 0.178207 -3.105872 4.178019 0
M  V30 29 H -2.052926 -2.582297 3.479118 0
M  V30 30 H -0.816476 0.636246 -4.354273 0
M  V30 31 H 1.469561 -0.030364 0.204986 0
M  V30 32 H 0.879493 1.720260 0.385318 0
M  V30 33 H 3.380833 0.668785 -0.913976 0
M  V30 34 H 3.191356 2.068249 0.265217 0
M  V30 35 H 2.165465 3.410340 -1.466661 0
M  V30 36 H 3.417483 2.464614 -2.402835 0
M  V30 37 H -1.733114 -0.566790 4.343807 0
M  V30 38 H -1.044715 0.057086 2.777275 0
M  V30 39 H 0.400033 -1.260960 5.079597 0
M  V30 40 H 0.511516 0.447579 4.611450 0
M  V30 END ATOM
M  V30 BEGIN BOND
M  V30 1 1 1 2
M  V30 2 1 2 3
M  V30 3 1 3 4
M  V30 4 1 4 5
M  V30 5 2 5 6
M  V30 6 1 6 7
M  V30 7 1 7 8
M  V30 8 1 8 9
M  V30 9 1 9 10
M  V30 10 1 10 11
M  V30 11 2 11 12
M  V30 12 1 12 13
M  V30 13 1 13 14
M  V30 14 1 14 15
M  V30 15 1 15 16
M  V30 16 2 8 17
M  V30 17 1 17 18
M  V30 18 2 18 19
M  V30 19 1 19 20
M  V30 20 1 4 21
M  V30 21 1 21 22
M  V30 22 1 22 1
M  V30 23 1 20 5
M  V30 24 1 19 7
M  V30 25 2 13 9
M  V30 26 1 16 12
M  V30 27 1 1 23
M  V30 28 1 1 24
M  V30 29 1 2 25
M  V30 30 1 2 26
M  V30 31 1 3 27
M  V30 32 1 3 28
M  V30 33 1 4 29
M  V30 34 1 10 30
M  V30 35 1 14 31
M  V30 36 1 14 32
M  V30 37 1 15 33
M  V30 38 1 15 34
M  V30 39 1 16 35
M  V30 40 1 16 36
M  V30 41 1 21 37
M  V30 42 1 21 38
M  V30 43 1 22 39
M  V30 44 1 22 40
M  V30 END BOND
M  V30 END CTAB
M  END
>  <Dataset>  (232) 
ChEMBL_Kinases

>  <Ligand_Instance>  (232) 
nan

>  <PDB_ID>  (232) 
nan

>  <Standardized_SMILES>  (232) 
C1CCC(c2nn3c(-c4[nH]nc5c4CCC5)nnc3s2)CC1

>  <Name>  (232) 
nan

>  <Pocket>  (232) 
nan

>  <ATP_Site>  (232) 
nan

>  <Peripheral>  (232) 
nan

>  <Num_H_Atoms_ProtBoundConf>  (232) 
nan

>  <Num_Resolved_Atoms>  (232) 
nan

>  <Num_Not_Resolved_Atoms>  (232) 
nan

$$$$
CHEMBL1582162
     RDKit          3D

  0  0  0  0  0  0  0  0  0  0999 V3000
M  V30 BEGIN CTAB
M  V30 COUNTS 44 45 0 0 0
M  V30 BEGIN ATOM
M  V30 1 C -2.086278 -5.113522 1.528786 0
M  V30 2 C -1.206691 -5.550032 0.376656 0
M  V30 3 C 0.245219 -5.179611 0.660640 0
M  V30 4 C 0.421831 -3.704899 0.842116 0
M  V30 5 C 0.000934 -2.923201 -0.396429 0
M  V30 6 C 0.231649 -1.494358 -0.065789 0
M  V30 7 O 0.669381 -1.673484 1.104711 0
M  V30 8 N -0.001005 -0.356081 -0.883971 0
M  V30 9 C 0.376925 0.811012 -0.121711 0
M  V30 10 C 1.685063 1.276890 -0.199088 0
M  V30 11 C 1.951274 2.391243 0.559999 0
M  V30 12 N 3.264564 2.936949 0.541679 0
M  V30 13 C 4.362644 2.406721 -0.223054 0
M  V30 14 C 3.615547 4.111952 1.318586 0
M  V30 15 N 1.028615 2.989301 1.318806 0
M  V30 16 C -0.246054 2.559275 1.412382 0
M  V30 17 C -1.143604 3.230433 2.218443 0
M  V30 18 C -2.454445 2.749884 2.285543 0
M  V30 19 C -2.763192 1.630400 1.536596 0
M  V30 20 C -1.862599 0.955460 0.726655 0
M  V30 21 C -0.561286 1.438880 0.664876 0
M  V30 22 H -2.873406 -5.868605 1.739779 0
M  V30 23 H -2.591205 -4.157509 1.225425 0
M  V30 24 H -1.478611 -4.954970 2.445796 0
M  V30 25 H -1.249389 -6.659044 0.303325 0
M  V30 26 H -1.543004 -5.149289 -0.606299 0
M  V30 27 H 0.917365 -5.583775 -0.097043 0
M  V30 28 H 0.496919 -5.656849 1.629872 0
M  V30 29 H -0.227260 -3.340390 1.670154 0
M  V30 30 H 1.494339 -3.537670 1.071324 0
M  V30 31 H -1.036341 -3.169499 -0.635064 0
M  V30 32 H 0.644585 -3.185718 -1.271429 0
M  V30 33 H -0.379843 -0.612297 -1.819811 0
M  V30 34 H 2.378185 0.766894 -0.815308 0
M  V30 35 H 5.346182 2.521204 0.321041 0
M  V30 36 H 4.503248 3.072094 -1.124373 0
M  V30 37 H 4.302073 1.346970 -0.469094 0
M  V30 38 H 3.883961 4.966704 0.669375 0
M  V30 39 H 4.497505 3.908100 1.979205 0
M  V30 40 H 2.809545 4.440447 1.999424 0
M  V30 41 H -0.858930 4.107136 2.790837 0
M  V30 42 H -3.204377 3.231925 2.899194 0
M  V30 43 H -3.800139 1.266259 1.601813 0
M  V30 44 H -2.162011 0.083852 0.163011 0
M  V30 END ATOM
M  V30 BEGIN BOND
M  V30 1 1 1 2
M  V30 2 1 2 3
M  V30 3 1 3 4
M  V30 4 1 4 5
M  V30 5 1 5 6
M  V30 6 2 6 7
M  V30 7 1 6 8
M  V30 8 1 8 9
M  V30 9 2 9 10
M  V30 10 1 10 11
M  V30 11 1 11 12
M  V30 12 1 12 13
M  V30 13 1 12 14
M  V30 14 2 11 15
M  V30 15 1 15 16
M  V30 16 2 16 17
M  V30 17 1 17 18
M  V30 18 2 18 19
M  V30 19 1 19 20
M  V30 20 2 20 21
M  V30 21 1 21 9
M  V30 22 1 21 16
M  V30 23 1 1 22
M  V30 24 1 1 23
M  V30 25 1 1 24
M  V30 26 1 2 25
M  V30 27 1 2 26
M  V30 28 1 3 27
M  V30 29 1 3 28
M  V30 30 1 4 29
M  V30 31 1 4 30
M  V30 32 1 5 31
M  V30 33 1 5 32
M  V30 34 1 8 33
M  V30 35 1 10 34
M  V30 36 1 13 35
M  V30 37 1 13 36
M  V30 38 1 13 37
M  V30 39 1 14 38
M  V30 40 1 14 39
M  V30 41 1 14 40
M  V30 42 1 17 41
M  V30 43 1 18 42
M  V30 44 1 19 43
M  V30 45 1 20 44
M  V30 END BOND
M  V30 END CTAB
M  END
>  <Dataset>  (233) 
ChEMBL_Kinases

>  <Ligand_Instance>  (233) 
nan

>  <PDB_ID>  (233) 
nan

>  <Standardized_SMILES>  (233) 
CCCCCC(=O)Nc1cc(N(C)C)nc2ccccc12

>  <Name>  (233) 
nan

>  <Pocket>  (233) 
nan

>  <ATP_Site>  (233) 
nan

>  <Peripheral>  (233) 
nan

>  <Num_H_Atoms_ProtBoundConf>  (233) 
nan

>  <Num_Resolved_Atoms>  (233) 
nan

>  <Num_Not_Resolved_Atoms>  (233) 
nan

$$$$
CHEMBL1582204
     RDKit          3D

  0  0  0  0  0  0  0  0  0  0999 V3000
M  V30 BEGIN CTAB
M  V30 COUNTS 42 44 0 0 0
M  V30 BEGIN ATOM
M  V30 1 C -1.311064 -2.876775 2.759876 0
M  V30 2 C -0.301798 -2.118420 3.567693 0
M  V30 3 S -0.163862 -0.378251 3.135053 0
M  V30 4 C 0.526898 -0.088419 1.534554 0
M  V30 5 N 0.654382 1.191298 1.427602 0
M  V30 6 C 1.216643 1.492742 0.146842 0
M  V30 7 C 1.571844 2.575416 -0.521336 0
M  V30 8 C 1.377873 3.861227 0.143437 0
M  V30 9 C 0.945173 5.030259 -0.494559 0
M  V30 10 C 0.788563 6.212912 0.164817 0
M  V30 11 C 1.063275 6.280327 1.519574 0
M  V30 12 C 1.496715 5.148252 2.205949 0
M  V30 13 C 1.648784 3.947615 1.504922 0
M  V30 14 C 1.412344 0.181490 -0.506412 0
M  V30 15 O 1.879004 -0.091890 -1.643989 0
M  V30 16 N 0.964028 -0.815149 0.400778 0
M  V30 17 C 0.915089 -2.226721 0.323011 0
M  V30 18 C 1.758828 -3.223874 0.746434 0
M  V30 19 C 1.467685 -4.552560 0.493612 0
M  V30 20 C 0.321336 -4.911802 -0.191278 0
M  V30 21 O 0.094327 -6.281684 -0.409880 0
M  V30 22 C -1.081726 -6.701428 -1.114348 0
M  V30 23 C -0.559066 -3.917749 -0.636184 0
M  V30 24 C -0.250220 -2.578433 -0.372116 0
M  V30 25 H -2.094624 -3.329789 3.429547 0
M  V30 26 H -1.864904 -2.274869 2.026899 0
M  V30 27 H -0.862018 -3.759891 2.239138 0
M  V30 28 H 0.694184 -2.617380 3.367843 0
M  V30 29 H -0.440314 -2.261220 4.664393 0
M  V30 30 H 1.991095 2.562437 -1.512572 0
M  V30 31 H 0.747271 4.894497 -1.563960 0
M  V30 32 H 0.452717 7.093425 -0.360762 0
M  V30 33 H 0.959794 7.195787 2.106844 0
M  V30 34 H 1.730645 5.136585 3.270788 0
M  V30 35 H 1.978575 3.078569 2.019601 0
M  V30 36 H 2.613221 -2.808350 1.267089 0
M  V30 37 H 2.186100 -5.269803 0.863404 0
M  V30 38 H -1.233330 -6.095726 -2.046743 0
M  V30 39 H -2.002999 -6.548780 -0.509500 0
M  V30 40 H -0.957990 -7.745701 -1.465408 0
M  V30 41 H -1.433512 -4.266579 -1.164521 0
M  V30 42 H -1.034073 -1.934141 -0.784418 0
M  V30 END ATOM
M  V30 BEGIN BOND
M  V30 1 1 1 2
M  V30 2 1 2 3
M  V30 3 1 3 4
M  V30 4 2 4 5
M  V30 5 1 5 6
M  V30 6 2 6 7
M  V30 7 1 7 8
M  V30 8 2 8 9
M  V30 9 1 9 10
M  V30 10 2 10 11
M  V30 11 1 11 12
M  V30 12 2 12 13
M  V30 13 1 6 14
M  V30 14 2 14 15
M  V30 15 1 14 16
M  V30 16 1 16 17
M  V30 17 2 17 18
M  V30 18 1 18 19
M  V30 19 2 19 20
M  V30 20 1 20 21
M  V30 21 1 21 22
M  V30 22 1 20 23
M  V30 23 2 23 24
M  V30 24 1 16 4
M  V30 25 1 24 17
M  V30 26 1 13 8
M  V30 27 1 1 25
M  V30 28 1 1 26
M  V30 29 1 1 27
M  V30 30 1 2 28
M  V30 31 1 2 29
M  V30 32 1 7 30
M  V30 33 1 9 31
M  V30 34 1 10 32
M  V30 35 1 11 33
M  V30 36 1 12 34
M  V30 37 1 13 35
M  V30 38 1 18 36
M  V30 39 1 19 37
M  V30 40 1 22 38
M  V30 41 1 22 39
M  V30 42 1 22 40
M  V30 43 1 23 41
M  V30 44 1 24 42
M  V30 END BOND
M  V30 END CTAB
M  END
>  <Dataset>  (234) 
ChEMBL_Kinases

>  <Ligand_Instance>  (234) 
nan

>  <PDB_ID>  (234) 
nan

>  <Standardized_SMILES>  (234) 
CCSC1=N/C(=C\c2ccccc2)C(=O)N1c1ccc(OC)cc1

>  <Name>  (234) 
nan

>  <Pocket>  (234) 
nan

>  <ATP_Site>  (234) 
nan

>  <Peripheral>  (234) 
nan

>  <Num_H_Atoms_ProtBoundConf>  (234) 
nan

>  <Num_Resolved_Atoms>  (234) 
nan

>  <Num_Not_Resolved_Atoms>  (234) 
nan

$$$$
CHEMBL1582263
     RDKit          3D

  0  0  0  0  0  0  0  0  0  0999 V3000
M  V30 BEGIN CTAB
M  V30 COUNTS 49 51 0 0 0
M  V30 BEGIN ATOM
M  V30 1 C 2.238105 -3.845126 0.937699 0
M  V30 2 C 1.274661 -2.839436 1.476412 0
M  V30 3 O 1.231353 -1.621497 0.812882 0
M  V30 4 C 2.212871 -0.702006 0.619425 0
M  V30 5 C 3.455094 -0.964276 1.141538 0
M  V30 6 C 4.472042 -0.052805 0.968516 0
M  V30 7 C 4.201058 1.102538 0.268662 0
M  V30 8 C 2.940129 1.325302 -0.239209 0
M  V30 9 C 1.873472 0.427410 -0.088251 0
M  V30 10 C 0.586513 0.776767 -0.763572 0
M  V30 11 C 0.519579 2.326739 -0.727838 0
M  V30 12 C 0.901625 2.686165 0.691210 0
M  V30 13 O 1.792406 3.279153 1.382822 0
M  V30 14 N -0.068171 2.205299 1.656001 0
M  V30 15 C -0.824871 1.001858 1.394725 0
M  V30 16 C -1.828620 0.509078 2.196704 0
M  V30 17 C -2.565690 -0.592620 1.825492 0
M  V30 18 O -3.564101 -1.087384 2.619182 0
M  V30 19 C -3.987113 -0.599407 3.861987 0
M  V30 20 C -2.247793 -1.181543 0.602691 0
M  V30 21 O -3.031285 -2.287326 0.288861 0
M  V30 22 C -4.239290 -2.196682 -0.425987 0
M  V30 23 C -1.228386 -0.694316 -0.227120 0
M  V30 24 O -1.115412 -1.424822 -1.356927 0
M  V30 25 C -0.400104 -2.539970 -1.707492 0
M  V30 26 C -0.514798 0.415805 0.196199 0
M  V30 27 H 1.695195 -4.737826 0.538448 0
M  V30 28 H 2.849930 -3.490229 0.086142 0
M  V30 29 H 2.915527 -4.169717 1.760123 0
M  V30 30 H 1.459743 -2.634025 2.553495 0
M  V30 31 H 0.247813 -3.279823 1.418645 0
M  V30 32 H 3.623273 -1.882358 1.683870 0
M  V30 33 H 5.436187 -0.289399 1.391803 0
M  V30 34 H 5.057788 1.755369 0.184894 0
M  V30 35 H 2.935497 2.270029 -0.772361 0
M  V30 36 H 0.466905 0.373454 -1.754531 0
M  V30 37 H 1.143902 2.791759 -1.479005 0
M  V30 38 H -0.536163 2.582359 -0.911739 0
M  V30 39 H -0.311418 2.643694 2.586897 0
M  V30 40 H -1.962738 1.061300 3.105723 0
M  V30 41 H -3.424057 0.275987 4.231854 0
M  V30 42 H -5.086461 -0.398336 3.889106 0
M  V30 43 H -3.770410 -1.419706 4.601899 0
M  V30 44 H -4.055786 -2.288198 -1.533129 0
M  V30 45 H -4.701150 -1.197817 -0.281777 0
M  V30 46 H -4.966273 -2.969600 -0.080101 0
M  V30 47 H -0.383717 -3.303930 -0.892260 0
M  V30 48 H -0.798767 -2.990450 -2.658605 0
M  V30 49 H 0.674807 -2.236888 -1.828406 0
M  V30 END ATOM
M  V30 BEGIN BOND
M  V30 1 1 1 2
M  V30 2 1 2 3
M  V30 3 1 3 4
M  V30 4 2 4 5
M  V30 5 1 5 6
M  V30 6 2 6 7
M  V30 7 1 7 8
M  V30 8 2 8 9
M  V30 9 1 9 10
M  V30 10 1 10 11
M  V30 11 1 11 12
M  V30 12 2 12 13
M  V30 13 1 12 14
M  V30 14 1 14 15
M  V30 15 2 15 16
M  V30 16 1 16 17
M  V30 17 1 17 18
M  V30 18 1 18 19
M  V30 19 2 17 20
M  V30 20 1 20 21
M  V30 21 1 21 22
M  V30 22 1 20 23
M  V30 23 1 23 24
M  V30 24 1 24 25
M  V30 25 2 23 26
M  V30 26 1 9 4
M  V30 27 1 26 10
M  V30 28 1 26 15
M  V30 29 1 1 27
M  V30 30 1 1 28
M  V30 31 1 1 29
M  V30 32 1 2 30
M  V30 33 1 2 31
M  V30 34 1 5 32
M  V30 35 1 6 33
M  V30 36 1 7 34
M  V30 37 1 8 35
M  V30 38 1 10 36
M  V30 39 1 11 37
M  V30 40 1 11 38
M  V30 41 1 14 39
M  V30 42 1 16 40
M  V30 43 1 19 41
M  V30 44 1 19 42
M  V30 45 1 19 43
M  V30 46 1 22 44
M  V30 47 1 22 45
M  V30 48 1 22 46
M  V30 49 1 25 47
M  V30 50 1 25 48
M  V30 51 1 25 49
M  V30 END BOND
M  V30 END CTAB
M  END
>  <Dataset>  (235) 
ChEMBL_Kinases

>  <Ligand_Instance>  (235) 
nan

>  <PDB_ID>  (235) 
nan

>  <Standardized_SMILES>  (235) 
CCOc1ccccc1C1CC(=O)Nc2cc(OC)c(OC)c(OC)c21

>  <Name>  (235) 
nan

>  <Pocket>  (235) 
nan

>  <ATP_Site>  (235) 
nan

>  <Peripheral>  (235) 
nan

>  <Num_H_Atoms_ProtBoundConf>  (235) 
nan

>  <Num_Resolved_Atoms>  (235) 
nan

>  <Num_Not_Resolved_Atoms>  (235) 
nan

$$$$
CHEMBL1582540
     RDKit          3D

  0  0  0  0  0  0  0  0  0  0999 V3000
M  V30 BEGIN CTAB
M  V30 COUNTS 49 49 0 0 0
M  V30 BEGIN ATOM
M  V30 1 C 0.570839 -6.928686 0.694921 0
M  V30 2 C 1.062427 -5.761847 -0.099601 0
M  V30 3 C 0.099010 -4.596759 0.026159 0
M  V30 4 C 0.541665 -3.406791 -0.748237 0
M  V30 5 C 1.851110 -2.811002 -0.398560 0
M  V30 6 N 2.005021 -2.300773 0.938593 0
M  V30 7 C 1.451107 -0.954108 1.056735 0
M  V30 8 O 1.687702 -0.680513 2.293962 0
M  V30 9 N 0.761239 0.120997 0.283848 0
M  V30 10 C 0.521795 1.265806 1.091735 0
M  V30 11 O 0.751339 1.538306 2.280578 0
M  V30 12 N -0.103262 2.028427 0.015319 0
M  V30 13 C -0.630511 3.371950 0.111601 0
M  V30 14 C 0.206266 4.431925 -0.158612 0
M  V30 15 C -0.391208 5.670673 -0.028035 0
M  V30 16 C -1.711976 5.800209 0.341871 0
M  V30 17 C -2.498579 4.705013 0.598747 0
M  V30 18 C -3.925593 4.882382 1.004037 0
M  V30 19 C -1.972098 3.435784 0.488893 0
M  V30 20 C -2.764827 2.204636 0.745506 0
M  V30 21 S 2.761626 -3.148574 2.231863 0
M  V30 22 C 1.681995 -4.141148 3.186546 0
M  V30 23 O 3.455491 -2.149850 3.163854 0
M  V30 24 O 3.851099 -4.013657 1.659042 0
M  V30 25 H 1.307578 -7.191283 1.510435 0
M  V30 26 H -0.391018 -6.747575 1.173148 0
M  V30 27 H 0.549265 -7.847185 0.040185 0
M  V30 28 H 1.134835 -6.044826 -1.191073 0
M  V30 29 H 2.092741 -5.508644 0.199684 0
M  V30 30 H -0.174678 -4.392889 1.064080 0
M  V30 31 H -0.845720 -4.956322 -0.466169 0
M  V30 32 H -0.298215 -2.662679 -0.742219 0
M  V30 33 H 0.604382 -3.726882 -1.817342 0
M  V30 34 H 2.632581 -3.582025 -0.634754 0
M  V30 35 H 2.049809 -2.013884 -1.177196 0
M  V30 36 H 0.921721 -0.646168 -0.257451 0
M  V30 37 H -0.304788 1.816604 -0.994284 0
M  V30 38 H 1.231749 4.254523 -0.444935 0
M  V30 39 H 0.209312 6.550618 -0.225707 0
M  V30 40 H -2.114628 6.803889 0.423901 0
M  V30 41 H -4.070559 5.839658 1.542715 0
M  V30 42 H -4.548856 4.739356 0.112416 0
M  V30 43 H -4.163035 4.022203 1.697523 0
M  V30 44 H -2.389107 1.352595 0.143338 0
M  V30 45 H -3.817588 2.436414 0.475701 0
M  V30 46 H -2.728485 2.012257 1.836336 0
M  V30 47 H 2.153135 -4.282231 4.187900 0
M  V30 48 H 0.649296 -3.742382 3.291127 0
M  V30 49 H 1.641494 -5.152992 2.717474 0
M  V30 END ATOM
M  V30 BEGIN BOND
M  V30 1 1 1 2
M  V30 2 1 2 3
M  V30 3 1 3 4
M  V30 4 1 4 5
M  V30 5 1 5 6
M  V30 6 1 6 7
M  V30 7 2 7 8
M  V30 8 1 7 9
M  V30 9 1 9 10
M  V30 10 2 10 11
M  V30 11 1 10 12
M  V30 12 1 12 13
M  V30 13 2 13 14
M  V30 14 1 14 15
M  V30 15 2 15 16
M  V30 16 1 16 17
M  V30 17 1 17 18
M  V30 18 2 17 19
M  V30 19 1 19 20
M  V30 20 1 6 21
M  V30 21 1 21 22
M  V30 22 2 21 23
M  V30 23 2 21 24
M  V30 24 1 19 13
M  V30 25 1 1 25
M  V30 26 1 1 26
M  V30 27 1 1 27
M  V30 28 1 2 28
M  V30 29 1 2 29
M  V30 30 1 3 30
M  V30 31 1 3 31
M  V30 32 1 4 32
M  V30 33 1 4 33
M  V30 34 1 5 34
M  V30 35 1 5 35
M  V30 36 1 9 36
M  V30 37 1 12 37
M  V30 38 1 14 38
M  V30 39 1 15 39
M  V30 40 1 16 40
M  V30 41 1 18 41
M  V30 42 1 18 42
M  V30 43 1 18 43
M  V30 44 1 20 44
M  V30 45 1 20 45
M  V30 46 1 20 46
M  V30 47 1 22 47
M  V30 48 1 22 48
M  V30 49 1 22 49
M  V30 END BOND
M  V30 END CTAB
M  END
>  <Dataset>  (236) 
ChEMBL_Kinases

>  <Ligand_Instance>  (236) 
nan

>  <PDB_ID>  (236) 
nan

>  <Standardized_SMILES>  (236) 
CCCCCN(C(=O)NC(=O)Nc1cccc(C)c1C)S(C)(=O)=O

>  <Name>  (236) 
nan

>  <Pocket>  (236) 
nan

>  <ATP_Site>  (236) 
nan

>  <Peripheral>  (236) 
nan

>  <Num_H_Atoms_ProtBoundConf>  (236) 
nan

>  <Num_Resolved_Atoms>  (236) 
nan

>  <Num_Not_Resolved_Atoms>  (236) 
nan

$$$$
CHEMBL1583279
     RDKit          3D

  0  0  0  0  0  0  0  0  0  0999 V3000
M  V30 BEGIN CTAB
M  V30 COUNTS 42 43 0 0 0
M  V30 BEGIN ATOM
M  V30 1 C -1.803194 -3.064593 1.372054 0
M  V30 2 C -0.590536 -2.512042 0.590059 0
M  V30 3 C 0.560744 -3.401120 0.824503 0
M  V30 4 C 1.846900 -3.017426 0.132964 0
M  V30 5 C 1.704689 -2.986848 -1.343111 0
M  V30 6 C 1.956745 -4.190902 -2.015355 0
M  V30 7 C 1.878974 -4.360513 -3.382205 0
M  V30 8 C 1.529114 -3.278489 -4.163256 0
M  V30 9 C 1.276847 -2.083579 -3.521010 0
M  V30 10 C 1.357648 -1.924997 -2.152971 0
M  V30 11 N -0.472592 -1.150244 1.014107 0
M  V30 12 C -0.735961 0.107850 0.428700 0
M  V30 13 O -1.178809 0.080032 -0.732327 0
M  V30 14 C -0.507321 1.340023 1.128744 0
M  V30 15 C -0.045704 1.469185 2.347980 0
M  V30 16 C 0.196890 2.716292 3.085810 0
M  V30 17 C 0.689857 2.714560 4.378117 0
M  V30 18 C 0.907611 3.900931 5.046115 0
M  V30 19 C 0.650953 5.129430 4.473677 0
M  V30 20 C 0.153611 5.147038 3.171154 0
M  V30 21 C -0.053876 3.945751 2.528923 0
M  V30 22 H -2.721208 -2.665634 0.908176 0
M  V30 23 H -1.802935 -4.166592 1.327279 0
M  V30 24 H -1.747343 -2.693273 2.434952 0
M  V30 25 H -0.937108 -2.559713 -0.464523 0
M  V30 26 H 0.285235 -4.401202 0.368756 0
M  V30 27 H 0.737380 -3.662894 1.888349 0
M  V30 28 H 2.676645 -3.710487 0.378571 0
M  V30 29 H 2.230851 -2.025932 0.519529 0
M  V30 30 H 2.240209 -5.092934 -1.456327 0
M  V30 31 H 2.082382 -5.304023 -3.842383 0
M  V30 32 H 1.441966 -3.309545 -5.231831 0
M  V30 33 H 0.994901 -1.176551 -4.049571 0
M  V30 34 H 1.170401 -1.008749 -1.617129 0
M  V30 35 H -0.100410 -1.255752 1.983292 0
M  V30 36 H -0.730020 2.269445 0.622315 0
M  V30 37 H 0.185341 0.543363 2.876414 0
M  V30 38 H 0.896101 1.758974 4.840642 0
M  V30 39 H 1.294221 3.859691 6.056754 0
M  V30 40 H 0.827359 6.055312 5.011848 0
M  V30 41 H -0.047710 6.118076 2.722714 0
M  V30 42 H -0.433955 4.055537 1.541214 0
M  V30 END ATOM
M  V30 BEGIN BOND
M  V30 1 1 1 2
M  V30 2 1 2 3
M  V30 3 1 3 4
M  V30 4 1 4 5
M  V30 5 2 5 6
M  V30 6 1 6 7
M  V30 7 2 7 8
M  V30 8 1 8 9
M  V30 9 2 9 10
M  V30 10 1 2 11
M  V30 11 1 11 12
M  V30 12 2 12 13
M  V30 13 1 12 14
M  V30 14 2 14 15
M  V30 15 1 15 16
M  V30 16 2 16 17
M  V30 17 1 17 18
M  V30 18 2 18 19
M  V30 19 1 19 20
M  V30 20 2 20 21
M  V30 21 1 10 5
M  V30 22 1 21 16
M  V30 23 1 1 22
M  V30 24 1 1 23
M  V30 25 1 1 24
M  V30 26 1 2 25
M  V30 27 1 3 26
M  V30 28 1 3 27
M  V30 29 1 4 28
M  V30 30 1 4 29
M  V30 31 1 6 30
M  V30 32 1 7 31
M  V30 33 1 8 32
M  V30 34 1 9 33
M  V30 35 1 10 34
M  V30 36 1 11 35
M  V30 37 1 14 36
M  V30 38 1 15 37
M  V30 39 1 17 38
M  V30 40 1 18 39
M  V30 41 1 19 40
M  V30 42 1 20 41
M  V30 43 1 21 42
M  V30 END BOND
M  V30 END CTAB
M  END
>  <Dataset>  (237) 
ChEMBL_Kinases

>  <Ligand_Instance>  (237) 
nan

>  <PDB_ID>  (237) 
nan

>  <Standardized_SMILES>  (237) 
CC(CCc1ccccc1)NC(=O)/C=C/c1ccccc1

>  <Name>  (237) 
nan

>  <Pocket>  (237) 
nan

>  <ATP_Site>  (237) 
nan

>  <Peripheral>  (237) 
nan

>  <Num_H_Atoms_ProtBoundConf>  (237) 
nan

>  <Num_Resolved_Atoms>  (237) 
nan

>  <Num_Not_Resolved_Atoms>  (237) 
nan

$$$$
CHEMBL1582546
     RDKit          3D

  0  0  0  0  0  0  0  0  0  0999 V3000
M  V30 BEGIN CTAB
M  V30 COUNTS 57 59 0 0 0
M  V30 BEGIN ATOM
M  V30 1 C 0.940120 -5.256557 4.872356 0
M  V30 2 O 1.106968 -5.550751 3.509110 0
M  V30 3 C 1.357514 -4.615842 2.539134 0
M  V30 4 C 1.460420 -3.267682 2.903269 0
M  V30 5 C 1.706695 -2.216171 2.047837 0
M  V30 6 C 1.866028 -2.519690 0.712153 0
M  V30 7 C 2.136497 -1.505073 -0.301726 0
M  V30 8 N 2.250962 -0.178837 -0.007400 0
M  V30 9 C 2.503979 0.533314 -1.121359 0
M  V30 10 C 2.747832 1.950478 -1.393906 0
M  V30 11 S 1.504032 2.870998 -2.151410 0 CHG=1 VAL=3
M  V30 12 O 0.995084 2.374381 -3.636630 0 CHG=-1 VAL=1
M  V30 13 C 0.317811 3.648196 -1.159118 0
M  V30 14 C -0.521137 2.783219 -0.314275 0
M  V30 15 O -1.721344 2.598820 -0.713087 0
M  V30 16 N -0.353391 2.064866 0.883233 0
M  V30 17 C -0.603807 1.238089 2.019627 0
M  V30 18 C -1.056566 -0.123457 1.622544 0
M  V30 19 C -2.391651 -0.257976 1.020908 0
M  V30 20 C -3.481338 0.434444 0.708866 0
M  V30 21 C -4.791680 0.111464 0.072331 0
M  V30 22 C -4.705542 -1.168022 -0.733394 0
M  V30 23 C -3.234386 -1.518466 -0.854916 0
M  V30 24 C -2.700128 -1.677891 0.567055 0
M  V30 25 C 2.538145 -0.430036 -2.124190 0
M  V30 26 C 2.765900 -0.372950 -3.596318 0
M  V30 27 O 2.319268 -1.601279 -1.602564 0
M  V30 28 C 1.778256 -3.825764 0.278601 0
M  V30 29 C 1.528763 -4.828022 1.195598 0
M  V30 30 H 0.774877 -6.223175 5.413134 0
M  V30 31 H 0.043355 -4.630950 5.082786 0
M  V30 32 H 1.856509 -4.833688 5.332925 0
M  V30 33 H 1.336180 -3.015000 3.958301 0
M  V30 34 H 1.774176 -1.210736 2.386431 0
M  V30 35 H 3.131311 2.413837 -0.444607 0
M  V30 36 H 3.658263 1.971662 -2.080012 0
M  V30 37 H -0.395642 4.192868 -1.841554 0
M  V30 38 H 0.770163 4.488162 -0.525443 0
M  V30 39 H 0.689336 2.362122 0.984293 0
M  V30 40 H -1.389473 1.752413 2.659106 0
M  V30 41 H 0.300158 1.204491 2.656531 0
M  V30 42 H -1.042715 -0.751502 2.542415 0
M  V30 43 H -0.352125 -0.602556 0.893878 0
M  V30 44 H -3.280807 1.465695 1.063856 0
M  V30 45 H -5.016899 0.964623 -0.595671 0
M  V30 46 H -5.533467 0.029172 0.888599 0
M  V30 47 H -5.101949 -1.014515 -1.758264 0
M  V30 48 H -5.202255 -2.000290 -0.216714 0
M  V30 49 H -3.144345 -2.487717 -1.384161 0
M  V30 50 H -2.668743 -0.729038 -1.369258 0
M  V30 51 H -3.442518 -2.157592 1.204836 0
M  V30 52 H -1.818772 -2.303401 0.486768 0
M  V30 53 H 3.231895 0.559244 -3.914010 0
M  V30 54 H 3.456683 -1.200866 -3.922672 0
M  V30 55 H 1.808311 -0.490739 -4.152207 0
M  V30 56 H 1.896163 -4.104332 -0.754589 0
M  V30 57 H 1.461043 -5.855749 0.854065 0
M  V30 END ATOM
M  V30 BEGIN BOND
M  V30 1 1 1 2
M  V30 2 1 2 3
M  V30 3 2 3 4
M  V30 4 1 4 5
M  V30 5 2 5 6
M  V30 6 1 6 7
M  V30 7 2 7 8
M  V30 8 1 8 9
M  V30 9 1 9 10
M  V30 10 1 10 11
M  V30 11 1 11 12
M  V30 12 1 11 13
M  V30 13 1 13 14
M  V30 14 2 14 15
M  V30 15 1 14 16
M  V30 16 1 16 17
M  V30 17 1 17 18
M  V30 18 1 18 19
M  V30 19 2 19 20
M  V30 20 1 20 21
M  V30 21 1 21 22
M  V30 22 1 22 23
M  V30 23 1 23 24
M  V30 24 2 9 25
M  V30 25 1 25 26
M  V30 26 1 25 27
M  V30 27 1 6 28
M  V30 28 2 28 29
M  V30 29 1 29 3
M  V30 30 1 27 7
M  V30 31 1 24 19
M  V30 32 1 1 30
M  V30 33 1 1 31
M  V30 34 1 1 32
M  V30 35 1 4 33
M  V30 36 1 5 34
M  V30 37 1 10 35
M  V30 38 1 10 36
M  V30 39 1 13 37
M  V30 40 1 13 38
M  V30 41 1 16 39
M  V30 42 1 17 40
M  V30 43 1 17 41
M  V30 44 1 18 42
M  V30 45 1 18 43
M  V30 46 1 20 44
M  V30 47 1 21 45
M  V30 48 1 21 46
M  V30 49 1 22 47
M  V30 50 1 22 48
M  V30 51 1 23 49
M  V30 52 1 23 50
M  V30 53 1 24 51
M  V30 54 1 24 52
M  V30 55 1 26 53
M  V30 56 1 26 54
M  V30 57 1 26 55
M  V30 58 1 28 56
M  V30 59 1 29 57
M  V30 END BOND
M  V30 END CTAB
M  END
>  <Dataset>  (238) 
ChEMBL_Kinases

>  <Ligand_Instance>  (238) 
nan

>  <PDB_ID>  (238) 
nan

>  <Standardized_SMILES>  (238) 
COc1ccc(-c2nc(C[S+]([O-])CC(=O)NCCC3=CCCCC3)c(C)o2)cc1

>  <Name>  (238) 
nan

>  <Pocket>  (238) 
nan

>  <ATP_Site>  (238) 
nan

>  <Peripheral>  (238) 
nan

>  <Num_H_Atoms_ProtBoundConf>  (238) 
nan

>  <Num_Resolved_Atoms>  (238) 
nan

>  <Num_Not_Resolved_Atoms>  (238) 
nan

$$$$
CHEMBL1582653
     RDKit          3D

  0  0  0  0  0  0  0  0  0  0999 V3000
M  V30 BEGIN CTAB
M  V30 COUNTS 30 31 0 0 0
M  V30 BEGIN ATOM
M  V30 1 O -0.812189 2.509211 -3.333552 0
M  V30 2 S -0.056586 1.900815 -2.185676 0
M  V30 3 O 0.797709 3.011417 -1.614704 0
M  V30 4 N -1.219681 1.367988 -1.048806 0
M  V30 5 C -0.624882 0.801268 0.142440 0
M  V30 6 C -1.679798 0.338419 1.130220 0
M  V30 7 C -2.582652 -0.716724 0.550232 0
M  V30 8 C -3.644674 -1.196331 1.515058 0
M  V30 9 C -2.584788 -2.108422 1.051415 0
M  V30 10 Cl -3.085121 -3.369202 -0.105678 0
M  V30 11 Cl -1.439546 -2.648441 2.297851 0
M  V30 12 C 0.968947 0.654720 -2.789202 0
M  V30 13 C 2.173511 0.267901 -2.236424 0
M  V30 14 C 2.919032 -0.746308 -2.802040 0
M  V30 15 C 2.504704 -1.417975 -3.934980 0
M  V30 16 C 1.299141 -1.063082 -4.526005 0
M  V30 17 C 0.562706 -0.034641 -3.936116 0
M  V30 18 H -1.796682 2.204200 -0.806883 0
M  V30 19 H -0.048580 1.605912 0.644294 0
M  V30 20 H 0.072462 -0.015621 -0.070757 0
M  V30 21 H -2.335303 1.180553 1.433703 0
M  V30 22 H -1.178616 -0.039693 2.028585 0
M  V30 23 H -2.961531 -0.550944 -0.480853 0
M  V30 24 H -4.680823 -1.375110 1.168670 0
M  V30 25 H -3.628418 -0.835470 2.566245 0
M  V30 26 H 2.498258 0.792152 -1.351056 0
M  V30 27 H 3.861227 -1.043307 -2.363125 0
M  V30 28 H 3.037833 -2.219238 -4.428485 0
M  V30 29 H 0.888324 -1.536977 -5.424313 0
M  V30 30 H -0.374406 0.232807 -4.405414 0
M  V30 END ATOM
M  V30 BEGIN BOND
M  V30 1 2 1 2
M  V30 2 2 2 3
M  V30 3 1 2 4
M  V30 4 1 4 5
M  V30 5 1 5 6
M  V30 6 1 6 7
M  V30 7 1 7 8
M  V30 8 1 8 9
M  V30 9 1 9 10
M  V30 10 1 9 11
M  V30 11 1 2 12
M  V30 12 2 12 13
M  V30 13 1 13 14
M  V30 14 2 14 15
M  V30 15 1 15 16
M  V30 16 2 16 17
M  V30 17 1 9 7
M  V30 18 1 17 12
M  V30 19 1 4 18
M  V30 20 1 5 19
M  V30 21 1 5 20
M  V30 22 1 6 21
M  V30 23 1 6 22
M  V30 24 1 7 23
M  V30 25 1 8 24
M  V30 26 1 8 25
M  V30 27 1 13 26
M  V30 28 1 14 27
M  V30 29 1 15 28
M  V30 30 1 16 29
M  V30 31 1 17 30
M  V30 END BOND
M  V30 END CTAB
M  END
>  <Dataset>  (239) 
ChEMBL_Kinases

>  <Ligand_Instance>  (239) 
nan

>  <PDB_ID>  (239) 
nan

>  <Standardized_SMILES>  (239) 
O=S(=O)(NCCC1CC1(Cl)Cl)c1ccccc1

>  <Name>  (239) 
nan

>  <Pocket>  (239) 
nan

>  <ATP_Site>  (239) 
nan

>  <Peripheral>  (239) 
nan

>  <Num_H_Atoms_ProtBoundConf>  (239) 
nan

>  <Num_Resolved_Atoms>  (239) 
nan

>  <Num_Not_Resolved_Atoms>  (239) 
nan

$$$$
CHEMBL1582739
     RDKit          3D

  0  0  0  0  0  0  0  0  0  0999 V3000
M  V30 BEGIN CTAB
M  V30 COUNTS 49 51 0 0 0
M  V30 BEGIN ATOM
M  V30 1 C 1.032103 -6.804968 3.628499 0
M  V30 2 O 0.713996 -6.416328 2.326297 0
M  V30 3 C 1.211944 -5.263447 1.734791 0
M  V30 4 C 2.060510 -4.460466 2.461392 0
M  V30 5 C 2.564311 -3.298705 1.869903 0
M  V30 6 C 2.213665 -2.971079 0.584991 0
M  V30 7 C 2.772119 -1.720447 -0.015133 0
M  V30 8 C 1.866071 -0.536993 0.255565 0
M  V30 9 N 2.371450 0.699914 -0.310511 0
M  V30 10 C 1.492572 1.807476 -0.039120 0
M  V30 11 C 1.779596 2.409522 1.099337 0
M  V30 12 Cl 2.961001 2.214403 2.381698 0
M  V30 13 C 0.831340 3.520822 1.285590 0
M  V30 14 O 0.646782 4.405811 2.173252 0
M  V30 15 N -0.053666 3.541635 0.165350 0
M  V30 16 C -1.165023 4.377842 -0.209994 0
M  V30 17 C -2.476427 3.906023 0.279815 0
M  V30 18 C -2.991216 4.294528 1.500258 0
M  V30 19 C -4.238786 3.816392 1.913727 0
M  V30 20 C -4.878343 2.965121 1.039369 0
M  V30 21 C -4.403105 2.550863 -0.186950 0
M  V30 22 C -3.157497 3.038314 -0.581728 0
M  V30 23 C 0.358060 2.461705 -0.676165 0
M  V30 24 O -0.011649 1.984012 -1.763423 0
M  V30 25 C 1.361241 -3.799171 -0.112869 0
M  V30 26 C 0.843634 -4.956320 0.440403 0
M  V30 27 O -0.010242 -5.814461 -0.215881 0
M  V30 28 C -0.479739 -5.654558 -1.520054 0
M  V30 29 H 0.454311 -7.744428 3.837011 0
M  V30 30 H 2.105154 -7.052164 3.767648 0
M  V30 31 H 0.713805 -6.068648 4.384999 0
M  V30 32 H 2.329733 -4.739777 3.489385 0
M  V30 33 H 3.227950 -2.689282 2.465871 0
M  V30 34 H 2.886521 -1.842125 -1.098317 0
M  V30 35 H 3.744649 -1.512260 0.456125 0
M  V30 36 H 1.631222 -0.433126 1.330257 0
M  V30 37 H 0.892465 -0.784481 -0.246029 0
M  V30 38 H 3.268322 0.715210 -0.838114 0
M  V30 39 H -1.049048 5.431078 0.183172 0
M  V30 40 H -1.208640 4.514445 -1.308643 0
M  V30 41 H -2.433849 4.965698 2.135539 0
M  V30 42 H -4.682357 4.092535 2.860292 0
M  V30 43 H -5.857266 2.603009 1.387220 0
M  V30 44 H -4.953534 1.883189 -0.823026 0
M  V30 45 H -2.766728 2.725504 -1.540233 0
M  V30 46 H 1.090129 -3.535914 -1.121200 0
M  V30 47 H -1.099722 -6.561181 -1.762069 0
M  V30 48 H -1.216300 -4.816179 -1.527230 0
M  V30 49 H 0.301383 -5.555996 -2.295469 0
M  V30 END ATOM
M  V30 BEGIN BOND
M  V30 1 1 1 2
M  V30 2 1 2 3
M  V30 3 2 3 4
M  V30 4 1 4 5
M  V30 5 2 5 6
M  V30 6 1 6 7
M  V30 7 1 7 8
M  V30 8 1 8 9
M  V30 9 1 9 10
M  V30 10 2 10 11
M  V30 11 1 11 12
M  V30 12 1 11 13
M  V30 13 2 13 14
M  V30 14 1 13 15
M  V30 15 1 15 16
M  V30 16 1 16 17
M  V30 17 2 17 18
M  V30 18 1 18 19
M  V30 19 2 19 20
M  V30 20 1 20 21
M  V30 21 2 21 22
M  V30 22 1 15 23
M  V30 23 2 23 24
M  V30 24 1 6 25
M  V30 25 2 25 26
M  V30 26 1 26 27
M  V30 27 1 27 28
M  V30 28 1 26 3
M  V30 29 1 23 10
M  V30 30 1 22 17
M  V30 31 1 1 29
M  V30 32 1 1 30
M  V30 33 1 1 31
M  V30 34 1 4 32
M  V30 35 1 5 33
M  V30 36 1 7 34
M  V30 37 1 7 35
M  V30 38 1 8 36
M  V30 39 1 8 37
M  V30 40 1 9 38
M  V30 41 1 16 39
M  V30 42 1 16 40
M  V30 43 1 18 41
M  V30 44 1 19 42
M  V30 45 1 20 43
M  V30 46 1 21 44
M  V30 47 1 22 45
M  V30 48 1 25 46
M  V30 49 1 28 47
M  V30 50 1 28 48
M  V30 51 1 28 49
M  V30 END BOND
M  V30 END CTAB
M  END
>  <Dataset>  (240) 
ChEMBL_Kinases

>  <Ligand_Instance>  (240) 
nan

>  <PDB_ID>  (240) 
nan

>  <Standardized_SMILES>  (240) 
COc1ccc(CCNC2=C(Cl)C(=O)N(Cc3ccccc3)C2=O)cc1OC

>  <Name>  (240) 
nan

>  <Pocket>  (240) 
nan

>  <ATP_Site>  (240) 
nan

>  <Peripheral>  (240) 
nan

>  <Num_H_Atoms_ProtBoundConf>  (240) 
nan

>  <Num_Resolved_Atoms>  (240) 
nan

>  <Num_Not_Resolved_Atoms>  (240) 
nan

$$$$
CHEMBL1582821
     RDKit          3D

  0  0  0  0  0  0  0  0  0  0999 V3000
M  V30 BEGIN CTAB
M  V30 COUNTS 41 43 0 0 0
M  V30 BEGIN ATOM
M  V30 1 C 1.702507 -5.882018 3.427367 0
M  V30 2 C 1.193637 -4.832042 2.514287 0
M  V30 3 C 0.633262 -5.245002 1.302445 0
M  V30 4 C 0.126542 -4.328724 0.382584 0
M  V30 5 C 0.162897 -2.977240 0.643432 0
M  V30 6 O -0.319975 -2.038316 -0.220837 0
M  V30 7 C 0.357381 -1.153718 -1.005175 0
M  V30 8 O 1.634385 -1.248569 -0.878437 0
M  V30 9 C -0.194798 -0.156783 -1.926696 0
M  V30 10 C -0.999840 0.926466 -1.284398 0
M  V30 11 C -0.342596 1.757859 -0.298980 0
M  V30 12 C 0.556149 2.741709 -0.682923 0
M  V30 13 C 0.934133 3.016715 -2.097291 0
M  V30 14 N 1.149521 3.514809 0.241255 0
M  V30 15 C 0.909132 3.377392 1.549479 0
M  V30 16 N 1.424788 4.074909 2.594188 0
M  V30 17 C 0.853892 3.539331 3.689011 0
M  V30 18 N 0.022547 2.551666 3.307576 0
M  V30 19 N 0.040651 2.433489 1.983141 0
M  V30 20 C -0.568271 1.642102 1.056083 0
M  V30 21 C -1.475086 0.665028 1.649621 0
M  V30 22 C 0.715835 -2.533750 1.843354 0
M  V30 23 C 1.203429 -3.477344 2.718748 0
M  V30 24 H 1.941302 -5.444653 4.408824 0
M  V30 25 H 2.673441 -6.303041 3.058568 0
M  V30 26 H 0.974368 -6.722941 3.539194 0
M  V30 27 H 0.535284 -6.275873 0.971470 0
M  V30 28 H -0.307233 -4.640229 -0.549372 0
M  V30 29 H -0.732985 -0.606212 -2.781405 0
M  V30 30 H 0.679510 0.363809 -2.429566 0
M  V30 31 H -1.958607 0.517701 -0.862085 0
M  V30 32 H -1.378412 1.601367 -2.112742 0
M  V30 33 H 1.040803 4.113283 -2.236655 0
M  V30 34 H 0.151909 2.711367 -2.817700 0
M  V30 35 H 1.922612 2.551432 -2.280122 0
M  V30 36 H 1.126725 3.952355 4.649759 0
M  V30 37 H -1.068670 0.261127 2.622660 0
M  V30 38 H -2.378059 1.250750 1.993565 0
M  V30 39 H -1.851625 -0.131409 1.026508 0
M  V30 40 H 0.810668 -1.491929 2.169370 0
M  V30 41 H 1.651680 -3.170925 3.676977 0
M  V30 END ATOM
M  V30 BEGIN BOND
M  V30 1 1 1 2
M  V30 2 2 2 3
M  V30 3 1 3 4
M  V30 4 2 4 5
M  V30 5 1 5 6
M  V30 6 1 6 7
M  V30 7 2 7 8
M  V30 8 1 7 9
M  V30 9 1 9 10
M  V30 10 1 10 11
M  V30 11 1 11 12
M  V30 12 1 12 13
M  V30 13 2 12 14
M  V30 14 1 14 15
M  V30 15 2 15 16
M  V30 16 1 16 17
M  V30 17 2 17 18
M  V30 18 1 18 19
M  V30 19 1 19 20
M  V30 20 1 20 21
M  V30 21 1 5 22
M  V30 22 2 22 23
M  V30 23 1 23 2
M  V30 24 2 20 11
M  V30 25 1 19 15
M  V30 26 1 1 24
M  V30 27 1 1 25
M  V30 28 1 1 26
M  V30 29 1 3 27
M  V30 30 1 4 28
M  V30 31 1 9 29
M  V30 32 1 9 30
M  V30 33 1 10 31
M  V30 34 1 10 32
M  V30 35 1 13 33
M  V30 36 1 13 34
M  V30 37 1 13 35
M  V30 38 1 17 36
M  V30 39 1 21 37
M  V30 40 1 21 38
M  V30 41 1 21 39
M  V30 42 1 22 40
M  V30 43 1 23 41
M  V30 END BOND
M  V30 END CTAB
M  END
>  <Dataset>  (241) 
ChEMBL_Kinases

>  <Ligand_Instance>  (241) 
nan

>  <PDB_ID>  (241) 
nan

>  <Standardized_SMILES>  (241) 
Cc1ccc(OC(=O)CCc2c(C)nc3ncnn3c2C)cc1

>  <Name>  (241) 
nan

>  <Pocket>  (241) 
nan

>  <ATP_Site>  (241) 
nan

>  <Peripheral>  (241) 
nan

>  <Num_H_Atoms_ProtBoundConf>  (241) 
nan

>  <Num_Resolved_Atoms>  (241) 
nan

>  <Num_Not_Resolved_Atoms>  (241) 
nan

$$$$
CHEMBL1582912
     RDKit          3D

  0  0  0  0  0  0  0  0  0  0999 V3000
M  V30 BEGIN CTAB
M  V30 COUNTS 51 52 0 0 0
M  V30 BEGIN ATOM
M  V30 1 C -1.331683 -6.045321 2.990157 0
M  V30 2 O -1.576082 -5.810091 1.602910 0
M  V30 3 C -1.167079 -4.595916 1.034555 0
M  V30 4 C -0.538600 -3.596729 1.719827 0
M  V30 5 C -0.179551 -2.448971 1.073269 0
M  V30 6 C -0.408999 -2.211277 -0.259146 0
M  V30 7 C -0.066008 -1.014883 -1.031605 0
M  V30 8 N -1.079896 -0.015651 -1.104123 0
M  V30 9 C -0.600057 1.098758 -1.878238 0
M  V30 10 C 0.488209 1.838051 -1.094293 0
M  V30 11 N 0.004807 1.926196 0.270196 0
M  V30 12 C 0.843908 2.209286 1.383819 0
M  V30 13 O 0.445838 2.290510 2.575887 0
M  V30 14 C 2.284537 2.421714 1.111116 0
M  V30 15 C 3.062160 2.715082 2.372201 0
M  V30 16 C 2.520025 3.967233 3.027221 0
M  V30 17 C 3.049042 1.608636 3.371724 0
M  V30 18 C -1.396135 1.722112 0.547476 0
M  V30 19 C -1.751322 0.313753 0.104822 0
M  V30 20 C -1.050419 -3.256010 -0.913943 0
M  V30 21 C -1.437377 -4.434987 -0.323095 0
M  V30 22 O -2.067490 -5.426590 -1.029876 0
M  V30 23 C -2.348547 -5.285268 -2.395414 0
M  V30 24 H -0.237165 -6.151728 3.120577 0
M  V30 25 H -1.682143 -5.173634 3.562229 0
M  V30 26 H -1.863545 -6.976580 3.267981 0
M  V30 27 H -0.342247 -3.752020 2.775145 0
M  V30 28 H 0.330502 -1.645410 1.623683 0
M  V30 29 H 0.128082 -1.333246 -2.098345 0
M  V30 30 H 0.908419 -0.613878 -0.675241 0
M  V30 31 H -0.138329 0.677154 -2.795369 0
M  V30 32 H -1.438423 1.790597 -2.123537 0
M  V30 33 H 0.537464 2.861130 -1.551547 0
M  V30 34 H 1.425919 1.288248 -1.200433 0
M  V30 35 H 2.352558 3.330360 0.476661 0
M  V30 36 H 2.701278 1.565593 0.571999 0
M  V30 37 H 4.120907 2.863674 2.041573 0
M  V30 38 H 1.857413 3.659079 3.845874 0
M  V30 39 H 3.378764 4.517431 3.424830 0
M  V30 40 H 1.974037 4.562264 2.267976 0
M  V30 41 H 2.235349 1.768760 4.112323 0
M  V30 42 H 3.049550 0.590338 2.943976 0
M  V30 43 H 3.996666 1.682679 3.972382 0
M  V30 44 H -1.674331 1.947829 1.577833 0
M  V30 45 H -1.981576 2.424390 -0.108932 0
M  V30 46 H -1.571934 -0.423623 0.884187 0
M  V30 47 H -2.851067 0.341419 -0.104772 0
M  V30 48 H -1.277316 -3.163795 -1.976054 0
M  V30 49 H -1.440353 -5.310283 -3.012120 0
M  V30 50 H -3.075004 -6.097926 -2.656510 0
M  V30 51 H -2.875055 -4.325165 -2.597157 0
M  V30 END ATOM
M  V30 BEGIN BOND
M  V30 1 1 1 2
M  V30 2 1 2 3
M  V30 3 2 3 4
M  V30 4 1 4 5
M  V30 5 2 5 6
M  V30 6 1 6 7
M  V30 7 1 7 8
M  V30 8 1 8 9
M  V30 9 1 9 10
M  V30 10 1 10 11
M  V30 11 1 11 12
M  V30 12 2 12 13
M  V30 13 1 12 14
M  V30 14 1 14 15
M  V30 15 1 15 16
M  V30 16 1 15 17
M  V30 17 1 11 18
M  V30 18 1 18 19
M  V30 19 1 6 20
M  V30 20 2 20 21
M  V30 21 1 21 22
M  V30 22 1 22 23
M  V30 23 1 21 3
M  V30 24 1 19 8
M  V30 25 1 1 24
M  V30 26 1 1 25
M  V30 27 1 1 26
M  V30 28 1 4 27
M  V30 29 1 5 28
M  V30 30 1 7 29
M  V30 31 1 7 30
M  V30 32 1 9 31
M  V30 33 1 9 32
M  V30 34 1 10 33
M  V30 35 1 10 34
M  V30 36 1 14 35
M  V30 37 1 14 36
M  V30 38 1 15 37
M  V30 39 1 16 38
M  V30 40 1 16 39
M  V30 41 1 16 40
M  V30 42 1 17 41
M  V30 43 1 17 42
M  V30 44 1 17 43
M  V30 45 1 18 44
M  V30 46 1 18 45
M  V30 47 1 19 46
M  V30 48 1 19 47
M  V30 49 1 20 48
M  V30 50 1 23 49
M  V30 51 1 23 50
M  V30 52 1 23 51
M  V30 END BOND
M  V30 END CTAB
M  END
>  <Dataset>  (242) 
ChEMBL_Kinases

>  <Ligand_Instance>  (242) 
nan

>  <PDB_ID>  (242) 
nan

>  <Standardized_SMILES>  (242) 
COc1ccc(CN2CCN(C(=O)CC(C)C)CC2)cc1OC

>  <Name>  (242) 
nan

>  <Pocket>  (242) 
nan

>  <ATP_Site>  (242) 
nan

>  <Peripheral>  (242) 
nan

>  <Num_H_Atoms_ProtBoundConf>  (242) 
nan

>  <Num_Resolved_Atoms>  (242) 
nan

>  <Num_Not_Resolved_Atoms>  (242) 
nan

$$$$
CHEMBL1583046
     RDKit          3D

  0  0  0  0  0  0  0  0  0  0999 V3000
M  V30 BEGIN CTAB
M  V30 COUNTS 46 49 0 0 0
M  V30 BEGIN ATOM
M  V30 1 C -0.115823 -6.860719 -3.890460 0
M  V30 2 C 0.080255 -5.497751 -3.202888 0
M  V30 3 N 0.993009 -4.955718 -2.803557 0
M  V30 4 C 1.131429 -3.789784 -2.217193 0
M  V30 5 C 2.272266 -3.158969 -1.740338 0
M  V30 6 C 2.195379 -1.929054 -1.154924 0
M  V30 7 C 1.018559 -1.216390 -0.984954 0
M  V30 8 N 0.871308 0.063128 -0.382684 0
M  V30 9 C 0.940151 1.359535 -0.995784 0
M  V30 10 O 1.160410 1.376840 -2.227004 0
M  V30 11 C 0.707027 2.342539 0.130268 0
M  V30 12 C -0.649009 2.104493 0.733306 0
M  V30 13 C -0.895454 2.759888 2.041384 0
M  V30 14 N 0.220994 2.897044 2.899717 0
M  V30 15 S -0.263267 2.565598 4.516371 0
M  V30 16 O 0.865184 2.838372 5.486998 0
M  V30 17 O -1.366003 3.524233 4.947392 0
M  V30 18 C -0.833106 0.941521 4.618143 0
M  V30 19 C -1.043815 -0.205233 3.845826 0
M  V30 20 C -1.549393 -1.311466 4.426679 0
M  V30 21 C -1.861950 -1.300510 5.814475 0
M  V30 22 S -1.365818 0.477217 6.268399 0
M  V30 23 C 1.402915 2.187976 2.558875 0
M  V30 24 C 1.803995 2.267998 1.131620 0
M  V30 25 C -0.135690 -1.816110 -1.448629 0
M  V30 26 C -0.037824 -3.085916 -2.050400 0
M  V30 27 S -1.243660 -4.195564 -2.769198 0
M  V30 28 H 0.524777 -6.805893 -4.770859 0
M  V30 29 H -1.181385 -6.948887 -4.182808 0
M  V30 30 H 0.165532 -7.654238 -3.164998 0
M  V30 31 H 3.286080 -3.580324 -1.793566 0
M  V30 32 H 3.072120 -1.420326 -0.776078 0
M  V30 33 H 0.705832 -0.267182 0.602141 0
M  V30 34 H 0.740350 3.332229 -0.369490 0
M  V30 35 H -1.375466 2.582220 0.007743 0
M  V30 36 H -0.905610 1.028911 0.695344 0
M  V30 37 H -1.673024 2.134004 2.569755 0
M  V30 38 H -1.351541 3.780280 1.918683 0
M  V30 39 H -0.761598 -0.060042 2.821818 0
M  V30 40 H -1.718789 -2.204072 3.845734 0
M  V30 41 H -2.253112 -2.088589 6.364654 0
M  V30 42 H 2.255145 2.568825 3.201523 0
M  V30 43 H 1.311905 1.118484 2.861129 0
M  V30 44 H 2.415968 1.341385 0.907157 0
M  V30 45 H 2.474870 3.143642 1.010035 0
M  V30 46 H -1.145827 -1.430097 -1.411456 0
M  V30 END ATOM
M  V30 BEGIN BOND
M  V30 1 1 1 2
M  V30 2 2 2 3
M  V30 3 1 3 4
M  V30 4 2 4 5
M  V30 5 1 5 6
M  V30 6 2 6 7
M  V30 7 1 7 8
M  V30 8 1 8 9
M  V30 9 2 9 10
M  V30 10 1 9 11
M  V30 11 1 11 12
M  V30 12 1 12 13
M  V30 13 1 13 14
M  V30 14 1 14 15
M  V30 15 2 15 16
M  V30 16 2 15 17
M  V30 17 1 15 18
M  V30 18 2 18 19
M  V30 19 1 19 20
M  V30 20 2 20 21
M  V30 21 1 21 22
M  V30 22 1 14 23
M  V30 23 1 23 24
M  V30 24 1 7 25
M  V30 25 2 25 26
M  V30 26 1 26 27
M  V30 27 1 27 2
M  V30 28 1 26 4
M  V30 29 1 24 11
M  V30 30 1 22 18
M  V30 31 1 1 28
M  V30 32 1 1 29
M  V30 33 1 1 30
M  V30 34 1 5 31
M  V30 35 1 6 32
M  V30 36 1 8 33
M  V30 37 1 11 34
M  V30 38 1 12 35
M  V30 39 1 12 36
M  V30 40 1 13 37
M  V30 41 1 13 38
M  V30 42 1 19 39
M  V30 43 1 20 40
M  V30 44 1 21 41
M  V30 45 1 23 42
M  V30 46 1 23 43
M  V30 47 1 24 44
M  V30 48 1 24 45
M  V30 49 1 25 46
M  V30 END BOND
M  V30 END CTAB
M  END
>  <Dataset>  (243) 
ChEMBL_Kinases

>  <Ligand_Instance>  (243) 
nan

>  <PDB_ID>  (243) 
nan

>  <Standardized_SMILES>  (243) 
Cc1nc2ccc(NC(=O)C3CCN(S(=O)(=O)c4cccs4)CC3)cc2s1

>  <Name>  (243) 
nan

>  <Pocket>  (243) 
nan

>  <ATP_Site>  (243) 
nan

>  <Peripheral>  (243) 
nan

>  <Num_H_Atoms_ProtBoundConf>  (243) 
nan

>  <Num_Resolved_Atoms>  (243) 
nan

>  <Num_Not_Resolved_Atoms>  (243) 
nan

$$$$
CHEMBL1583062
     RDKit          3D

  0  0  0  0  0  0  0  0  0  0999 V3000
M  V30 BEGIN CTAB
M  V30 COUNTS 45 48 0 0 0
M  V30 BEGIN ATOM
M  V30 1 O 0.654279 -2.153537 1.277047 0
M  V30 2 C 1.618965 -2.811740 1.712149 0
M  V30 3 C 2.522573 -2.054510 2.611544 0
M  V30 4 S 1.833057 -0.357368 2.726376 0
M  V30 5 C 1.956573 0.444262 1.121932 0
M  V30 6 N 2.471206 -0.092114 -0.009977 0
M  V30 7 C 2.387165 0.815635 -0.997386 0
M  V30 8 C 2.792895 0.686926 -2.309892 0
M  V30 9 C 2.575855 1.809857 -3.114031 0
M  V30 10 C 1.992623 2.938131 -2.575242 0
M  V30 11 N 1.625825 2.979570 -1.281606 0
M  V30 12 C 1.802514 1.932440 -0.436939 0
M  V30 13 N 1.538057 1.697240 0.874818 0
M  V30 14 C 0.917974 2.676638 1.762852 0
M  V30 15 C -0.561549 2.539705 1.738260 0
M  V30 16 C -1.291140 3.282138 0.802298 0
M  V30 17 C -2.672839 3.218664 0.705757 0
M  V30 18 C -3.375287 2.385247 1.570374 0
M  V30 19 C -2.677181 1.644348 2.500736 0
M  V30 20 C -1.302502 1.730485 2.570572 0
M  V30 21 N 1.787304 -4.171816 1.342081 0
M  V30 22 C 0.935373 -4.928533 0.479216 0
M  V30 23 C -0.472724 -5.038363 0.970439 0
M  V30 24 C -1.536681 -4.190573 0.695645 0
M  V30 25 C -2.673611 -4.663656 1.359381 0
M  V30 26 C -2.188884 -5.799011 2.004560 0
M  V30 27 O -0.918329 -6.003773 1.772006 0
M  V30 28 H 3.530714 -1.970832 2.156128 0
M  V30 29 H 2.551815 -2.499722 3.623626 0
M  V30 30 H 3.247895 -0.243928 -2.657971 0
M  V30 31 H 2.891312 1.718765 -4.147336 0
M  V30 32 H 1.831557 3.799920 -3.212563 0
M  V30 33 H 1.303365 2.571318 2.810815 0
M  V30 34 H 1.157558 3.691227 1.383338 0
M  V30 35 H -0.833759 3.962043 0.082940 0
M  V30 36 H -3.226296 3.794727 -0.018994 0
M  V30 37 H -4.458508 2.271648 1.567538 0
M  V30 38 H -3.121947 0.963653 3.222531 0
M  V30 39 H -0.731016 1.159249 3.291730 0
M  V30 40 H 2.658116 -4.577589 1.801548 0
M  V30 41 H 1.340232 -5.960468 0.444850 0
M  V30 42 H 0.944549 -4.576049 -0.572987 0
M  V30 43 H -1.525719 -3.311125 0.080806 0
M  V30 44 H -3.658901 -4.249480 1.362492 0
M  V30 45 H -2.813646 -6.432651 2.628687 0
M  V30 END ATOM
M  V30 BEGIN BOND
M  V30 1 2 1 2
M  V30 2 1 2 3
M  V30 3 1 3 4
M  V30 4 1 4 5
M  V30 5 2 5 6
M  V30 6 1 6 7
M  V30 7 2 7 8
M  V30 8 1 8 9
M  V30 9 2 9 10
M  V30 10 1 10 11
M  V30 11 2 11 12
M  V30 12 1 12 13
M  V30 13 1 13 14
M  V30 14 1 14 15
M  V30 15 2 15 16
M  V30 16 1 16 17
M  V30 17 2 17 18
M  V30 18 1 18 19
M  V30 19 2 19 20
M  V30 20 1 2 21
M  V30 21 1 21 22
M  V30 22 1 22 23
M  V30 23 2 23 24
M  V30 24 1 24 25
M  V30 25 2 25 26
M  V30 26 1 26 27
M  V30 27 1 13 5
M  V30 28 1 20 15
M  V30 29 1 27 23
M  V30 30 1 12 7
M  V30 31 1 3 28
M  V30 32 1 3 29
M  V30 33 1 8 30
M  V30 34 1 9 31
M  V30 35 1 10 32
M  V30 36 1 14 33
M  V30 37 1 14 34
M  V30 38 1 16 35
M  V30 39 1 17 36
M  V30 40 1 18 37
M  V30 41 1 19 38
M  V30 42 1 20 39
M  V30 43 1 21 40
M  V30 44 1 22 41
M  V30 45 1 22 42
M  V30 46 1 24 43
M  V30 47 1 25 44
M  V30 48 1 26 45
M  V30 END BOND
M  V30 END CTAB
M  END
>  <Dataset>  (244) 
ChEMBL_Kinases

>  <Ligand_Instance>  (244) 
nan

>  <PDB_ID>  (244) 
nan

>  <Standardized_SMILES>  (244) 
O=C(CSc1nc2cccnc2n1Cc1ccccc1)NCc1ccco1

>  <Name>  (244) 
nan

>  <Pocket>  (244) 
nan

>  <ATP_Site>  (244) 
nan

>  <Peripheral>  (244) 
nan

>  <Num_H_Atoms_ProtBoundConf>  (244) 
nan

>  <Num_Resolved_Atoms>  (244) 
nan

>  <Num_Not_Resolved_Atoms>  (244) 
nan

$$$$
CHEMBL1583122
     RDKit          3D

  0  0  0  0  0  0  0  0  0  0999 V3000
M  V30 BEGIN CTAB
M  V30 COUNTS 53 57 0 0 0
M  V30 BEGIN ATOM
M  V30 1 C -2.149576 0.012331 5.237157 0
M  V30 2 C -0.930030 -0.265494 4.460249 0
M  V30 3 C 0.321994 -0.203995 5.073783 0
M  V30 4 C 1.513363 -0.450974 4.430563 0
M  V30 5 C 1.484060 -0.782458 3.092966 0
M  V30 6 C 2.671470 -1.090511 2.265075 0
M  V30 7 N 3.227844 0.069049 1.614752 0
M  V30 8 N 4.186558 0.889087 2.055448 0
M  V30 9 N 4.420798 1.806912 1.159257 0
M  V30 10 C 3.628359 1.630723 0.094189 0
M  V30 11 C 3.417480 2.247044 -1.120508 0
M  V30 12 O 4.172357 3.368022 -1.443333 0
M  V30 13 N 2.492619 1.771092 -1.986734 0
M  V30 14 C 1.747928 0.676931 -1.684585 0
M  V30 15 C 0.715537 0.130682 -2.639044 0
M  V30 16 C -0.592141 0.723989 -2.145555 0
M  V30 17 C -1.758642 -0.107474 -2.646844 0
M  V30 18 N -1.608302 -1.386200 -1.982200 0
M  V30 19 C -2.560046 -1.545712 -0.949422 0
M  V30 20 O -3.304868 -0.537946 -0.860627 0
M  V30 21 C -2.879993 -2.613258 0.042857 0
M  V30 22 C -4.175670 -3.197653 -0.017757 0
M  V30 23 C -4.418985 -4.166501 0.906773 0
M  V30 24 C -3.434296 -4.542460 1.846124 0
M  V30 25 S -2.041526 -3.500199 1.459690 0
M  V30 26 C -0.508871 -2.087049 -2.599768 0
M  V30 27 C 0.780566 -1.345619 -2.632267 0
M  V30 28 N 1.961254 0.081857 -0.496781 0
M  V30 29 C 2.862895 0.507853 0.398778 0
M  V30 30 C 0.272074 -0.859194 2.428096 0
M  V30 31 C -0.892772 -0.602187 3.118147 0
M  V30 32 H -1.882714 0.080247 6.302476 0
M  V30 33 H -2.686072 0.921637 4.894766 0
M  V30 34 H -2.854027 -0.837235 5.038887 0
M  V30 35 H 0.360453 0.058327 6.138411 0
M  V30 36 H 2.468066 -0.398563 4.918475 0
M  V30 37 H 3.461285 -1.446748 2.984490 0
M  V30 38 H 2.518075 -1.937390 1.565187 0
M  V30 39 H 4.012628 4.200208 -0.886870 0
M  V30 40 H 0.949393 0.586491 -3.626148 0
M  V30 41 H -0.622340 1.771313 -2.467824 0
M  V30 42 H -0.594802 0.625348 -1.045755 0
M  V30 43 H -2.675119 0.434632 -2.412983 0
M  V30 44 H -1.697231 -0.215358 -3.765267 0
M  V30 45 H -4.962330 -2.949571 -0.710271 0
M  V30 46 H -5.320728 -4.744051 1.052005 0
M  V30 47 H -3.361571 -5.222156 2.625089 0
M  V30 48 H -0.858325 -2.425484 -3.588675 0
M  V30 49 H -0.350291 -3.030151 -1.998654 0
M  V30 50 H 1.287843 -1.646279 -3.598007 0
M  V30 51 H 1.456672 -1.699387 -1.823856 0
M  V30 52 H 0.161853 -1.110880 1.385583 0
M  V30 53 H -1.846088 -0.659620 2.608065 0
M  V30 END ATOM
M  V30 BEGIN BOND
M  V30 1 1 1 2
M  V30 2 2 2 3
M  V30 3 1 3 4
M  V30 4 2 4 5
M  V30 5 1 5 6
M  V30 6 1 6 7
M  V30 7 1 7 8
M  V30 8 2 8 9
M  V30 9 1 9 10
M  V30 10 2 10 11
M  V30 11 1 11 12
M  V30 12 1 11 13
M  V30 13 2 13 14
M  V30 14 1 14 15
M  V30 15 1 15 16
M  V30 16 1 16 17
M  V30 17 1 17 18
M  V30 18 1 18 19
M  V30 19 2 19 20
M  V30 20 1 19 21
M  V30 21 2 21 22
M  V30 22 1 22 23
M  V30 23 2 23 24
M  V30 24 1 24 25
M  V30 25 1 18 26
M  V30 26 1 26 27
M  V30 27 1 14 28
M  V30 28 2 28 29
M  V30 29 1 5 30
M  V30 30 2 30 31
M  V30 31 1 31 2
M  V30 32 1 29 7
M  V30 33 1 29 10
M  V30 34 1 27 15
M  V30 35 1 25 21
M  V30 36 1 1 32
M  V30 37 1 1 33
M  V30 38 1 1 34
M  V30 39 1 3 35
M  V30 40 1 4 36
M  V30 41 1 6 37
M  V30 42 1 6 38
M  V30 43 1 12 39
M  V30 44 1 15 40
M  V30 45 1 16 41
M  V30 46 1 16 42
M  V30 47 1 17 43
M  V30 48 1 17 44
M  V30 49 1 22 45
M  V30 50 1 23 46
M  V30 51 1 24 47
M  V30 52 1 26 48
M  V30 53 1 26 49
M  V30 54 1 27 50
M  V30 55 1 27 51
M  V30 56 1 30 52
M  V30 57 1 31 53
M  V30 END BOND
M  V30 END CTAB
M  END
>  <Dataset>  (245) 
ChEMBL_Kinases

>  <Ligand_Instance>  (245) 
nan

>  <PDB_ID>  (245) 
nan

>  <Standardized_SMILES>  (245) 
Cc1ccc(Cn2nnc3c(O)nc(C4CCN(C(=O)c5cccs5)CC4)nc32)cc1

>  <Name>  (245) 
nan

>  <Pocket>  (245) 
nan

>  <ATP_Site>  (245) 
nan

>  <Peripheral>  (245) 
nan

>  <Num_H_Atoms_ProtBoundConf>  (245) 
nan

>  <Num_Resolved_Atoms>  (245) 
nan

>  <Num_Not_Resolved_Atoms>  (245) 
nan

$$$$
CHEMBL1582542
     RDKit          3D

  0  0  0  0  0  0  0  0  0  0999 V3000
M  V30 BEGIN CTAB
M  V30 COUNTS 35 38 0 0 0
M  V30 BEGIN ATOM
M  V30 1 C 0.402590 -4.596209 3.532622 0
M  V30 2 O 0.434307 -3.462042 2.730072 0
M  V30 3 C 1.374420 -3.202907 1.719032 0
M  V30 4 C 2.365643 -4.131717 1.473268 0
M  V30 5 C 3.303931 -3.914706 0.492399 0
M  V30 6 C 3.219791 -2.734309 -0.238749 0
M  V30 7 C 2.206828 -1.846087 0.053900 0
M  V30 8 C 1.253729 -2.000549 1.005379 0
M  V30 9 N 0.217540 -1.137835 1.331770 0
M  V30 10 C 0.016837 0.111605 0.690090 0
M  V30 11 N 0.953147 0.865639 0.218124 0
M  V30 12 C 0.377492 2.044713 -0.356528 0
M  V30 13 C 0.821770 3.183471 -0.991855 0
M  V30 14 C -0.085621 4.144628 -1.425240 0
M  V30 15 C -1.459795 3.999169 -1.238404 0
M  V30 16 C -1.929054 2.866996 -0.604561 0
M  V30 17 C -3.245256 2.557817 -0.336137 0
M  V30 18 C -3.546439 1.358342 0.319635 0
M  V30 19 C -2.570356 0.449822 0.719653 0
M  V30 20 C -1.267475 0.760950 0.451224 0
M  V30 21 C -0.986615 1.946812 -0.195613 0
M  V30 22 H 1.444350 -4.902418 3.760314 0
M  V30 23 H -0.193193 -5.437065 3.123655 0
M  V30 24 H -0.005274 -4.261005 4.530971 0
M  V30 25 H 2.470968 -5.048729 2.005473 0
M  V30 26 H 4.078920 -4.609846 0.279009 0
M  V30 27 H 3.950967 -2.549932 -1.013574 0
M  V30 28 H 2.202365 -0.966467 -0.545343 0
M  V30 29 H -0.478618 -1.368302 2.075541 0
M  V30 30 H 1.882524 3.298633 -1.137544 0
M  V30 31 H 0.260142 5.042864 -1.925989 0
M  V30 32 H -2.204604 4.713727 -1.554929 0
M  V30 33 H -3.980000 3.271750 -0.653039 0
M  V30 34 H -4.587725 1.140522 0.517866 0
M  V30 35 H -2.804074 -0.458790 1.216800 0
M  V30 END ATOM
M  V30 BEGIN BOND
M  V30 1 1 1 2
M  V30 2 1 2 3
M  V30 3 2 3 4
M  V30 4 1 4 5
M  V30 5 2 5 6
M  V30 6 1 6 7
M  V30 7 2 7 8
M  V30 8 1 8 9
M  V30 9 1 9 10
M  V30 10 2 10 11
M  V30 11 1 11 12
M  V30 12 1 12 13
M  V30 13 2 13 14
M  V30 14 1 14 15
M  V30 15 2 15 16
M  V30 16 1 16 17
M  V30 17 2 17 18
M  V30 18 1 18 19
M  V30 19 2 19 20
M  V30 20 1 20 21
M  V30 21 1 8 3
M  V30 22 1 20 10
M  V30 23 2 21 12
M  V30 24 1 21 16
M  V30 25 1 1 22
M  V30 26 1 1 23
M  V30 27 1 1 24
M  V30 28 1 4 25
M  V30 29 1 5 26
M  V30 30 1 6 27
M  V30 31 1 7 28
M  V30 32 1 9 29
M  V30 33 1 13 30
M  V30 34 1 14 31
M  V30 35 1 15 32
M  V30 36 1 17 33
M  V30 37 1 18 34
M  V30 38 1 19 35
M  V30 END BOND
M  V30 END CTAB
M  END
>  <Dataset>  (246) 
ChEMBL_Kinases

>  <Ligand_Instance>  (246) 
nan

>  <PDB_ID>  (246) 
nan

>  <Standardized_SMILES>  (246) 
COc1ccccc1NC1=Nc2cccc3cccc1c23

>  <Name>  (246) 
nan

>  <Pocket>  (246) 
nan

>  <ATP_Site>  (246) 
nan

>  <Peripheral>  (246) 
nan

>  <Num_H_Atoms_ProtBoundConf>  (246) 
nan

>  <Num_Resolved_Atoms>  (246) 
nan

>  <Num_Not_Resolved_Atoms>  (246) 
nan

$$$$
CHEMBL1587891
     RDKit          3D

  0  0  0  0  0  0  0  0  0  0999 V3000
M  V30 BEGIN CTAB
M  V30 COUNTS 45 49 0 0 0
M  V30 BEGIN ATOM
M  V30 1 O 8.760104 -2.285773 -0.549079 0
M  V30 2 N 7.648219 -1.863616 -0.173237 0 CHG=1 VAL=4
M  V30 3 O 7.659188 -0.956522 0.863573 0 CHG=-1 VAL=1
M  V30 4 C 6.421335 -2.278331 -0.764000 0
M  V30 5 C 6.432458 -3.181107 -1.792977 0
M  V30 6 C 5.238033 -3.602175 -2.387409 0
M  V30 7 C 4.098331 -3.038287 -1.852770 0
M  V30 8 C 4.046795 -2.127477 -0.818485 0
M  V30 9 C 2.774870 -1.599462 -0.337608 0
M  V30 10 C 2.626736 -0.688973 0.687470 0
M  V30 11 N 1.290713 -0.519455 0.753987 0
M  V30 12 N 0.575669 0.260437 1.576205 0
M  V30 13 C -0.755427 0.337675 1.537542 0
M  V30 14 C -1.509181 1.198397 2.447450 0
M  V30 15 C -1.487849 1.040108 3.822442 0
M  V30 16 C -2.243869 1.920266 4.566052 0
M  V30 17 C -3.010879 2.935643 4.041049 0
M  V30 18 C -3.000268 3.053615 2.666949 0
M  V30 19 C -2.254330 2.191939 1.862131 0
M  V30 20 C -1.456419 -0.426755 0.598097 0
M  V30 21 C -2.924447 -0.392871 0.498226 0
M  V30 22 C -3.518320 -0.856702 1.675328 0
M  V30 23 C -4.901544 -0.893395 1.754101 0
M  V30 24 C -5.637298 -0.469945 0.666548 0
M  V30 25 C -5.053802 -0.008444 -0.504450 0
M  V30 26 C -3.677727 0.026156 -0.578573 0
M  V30 27 N -0.713595 -1.214232 -0.230028 0
M  V30 28 C 0.629915 -1.260579 -0.154840 0
M  V30 29 N 1.581735 -1.949707 -0.850781 0
M  V30 30 C 5.256320 -1.740153 -0.261148 0
M  V30 31 H 7.384417 -3.577517 -2.155274 0
M  V30 32 H 5.208368 -4.308780 -3.196293 0
M  V30 33 H 3.161861 -3.368142 -2.318919 0
M  V30 34 H 3.373064 -0.207066 1.308411 0
M  V30 35 H -0.893640 0.250160 4.261251 0
M  V30 36 H -2.197804 1.760131 5.637797 0
M  V30 37 H -3.542285 3.537171 4.739436 0
M  V30 38 H -3.606564 3.857400 2.238559 0
M  V30 39 H -2.295259 2.345923 0.790127 0
M  V30 40 H -2.997263 -1.198210 2.553040 0
M  V30 41 H -5.394100 -1.253049 2.664963 0
M  V30 42 H -6.736605 -0.485074 0.693091 0
M  V30 43 H -5.612765 0.328903 -1.368806 0
M  V30 44 H -3.093616 0.362952 -1.433484 0
M  V30 45 H 5.175558 -1.028085 0.544483 0
M  V30 END ATOM
M  V30 BEGIN BOND
M  V30 1 2 1 2
M  V30 2 1 2 3
M  V30 3 1 2 4
M  V30 4 2 4 5
M  V30 5 1 5 6
M  V30 6 2 6 7
M  V30 7 1 7 8
M  V30 8 1 8 9
M  V30 9 2 9 10
M  V30 10 1 10 11
M  V30 11 1 11 12
M  V30 12 2 12 13
M  V30 13 1 13 14
M  V30 14 2 14 15
M  V30 15 1 15 16
M  V30 16 2 16 17
M  V30 17 1 17 18
M  V30 18 2 18 19
M  V30 19 1 13 20
M  V30 20 1 20 21
M  V30 21 2 21 22
M  V30 22 1 22 23
M  V30 23 2 23 24
M  V30 24 1 24 25
M  V30 25 2 25 26
M  V30 26 2 20 27
M  V30 27 1 27 28
M  V30 28 2 28 29
M  V30 29 2 8 30
M  V30 30 1 30 4
M  V30 31 1 29 9
M  V30 32 1 28 11
M  V30 33 1 19 14
M  V30 34 1 26 21
M  V30 35 1 5 31
M  V30 36 1 6 32
M  V30 37 1 7 33
M  V30 38 1 10 34
M  V30 39 1 15 35
M  V30 40 1 16 36
M  V30 41 1 17 37
M  V30 42 1 18 38
M  V30 43 1 19 39
M  V30 44 1 22 40
M  V30 45 1 23 41
M  V30 46 1 24 42
M  V30 47 1 25 43
M  V30 48 1 26 44
M  V30 49 1 30 45
M  V30 END BOND
M  V30 END CTAB
M  END
>  <Dataset>  (247) 
ChEMBL_Kinases

>  <Ligand_Instance>  (247) 
nan

>  <PDB_ID>  (247) 
nan

>  <Standardized_SMILES>  (247) 
O=[N+]([O-])c1cccc(-c2cn3nc(-c4ccccc4)c(-c4ccccc4)nc3n2)c1

>  <Name>  (247) 
nan

>  <Pocket>  (247) 
nan

>  <ATP_Site>  (247) 
nan

>  <Peripheral>  (247) 
nan

>  <Num_H_Atoms_ProtBoundConf>  (247) 
nan

>  <Num_Resolved_Atoms>  (247) 
nan

>  <Num_Not_Resolved_Atoms>  (247) 
nan

$$$$
CHEMBL1587725
     RDKit          3D

  0  0  0  0  0  0  0  0  0  0999 V3000
M  V30 BEGIN CTAB
M  V30 COUNTS 35 36 0 0 0
M  V30 BEGIN ATOM
M  V30 1 N -0.246284 -4.294384 0.602270 0
M  V30 2 C -0.716404 -3.302503 -0.093256 0
M  V30 3 N -0.343334 -1.976040 0.193085 0
M  V30 4 C 0.544029 -1.633831 1.227532 0
M  V30 5 O 0.995502 -2.619545 1.899545 0
M  V30 6 C 0.938862 -0.257843 1.534062 0
M  V30 7 C 0.474456 0.838455 0.832301 0
M  V30 8 C 0.876453 2.119959 1.159400 0
M  V30 9 C 1.771245 2.278843 2.226052 0
M  V30 10 O 2.132812 3.591019 2.500204 0
M  V30 11 C 3.003190 4.015511 3.503834 0
M  V30 12 C 3.081838 5.536118 3.408147 0
M  V30 13 F 1.843529 6.107718 3.586612 0
M  V30 14 F 3.571590 5.866033 2.168423 0
M  V30 15 F 3.930725 6.008930 4.365431 0
M  V30 16 N 2.217830 1.196706 2.904395 0
M  V30 17 C 1.819414 -0.054056 2.577777 0
M  V30 18 C -1.651841 -3.588596 -1.193379 0
M  V30 19 C -1.605920 -4.770017 -1.913165 0
M  V30 20 C -2.525517 -4.940845 -2.923183 0
M  V30 21 C -3.472329 -3.991062 -3.234477 0
M  V30 22 C -3.499474 -2.812368 -2.498085 0
M  V30 23 C -2.590982 -2.599411 -1.471662 0
M  V30 24 H -0.509835 -5.276359 0.405628 0
M  V30 25 H -0.760322 -1.231113 -0.406821 0
M  V30 26 H -0.215475 0.689330 0.013235 0
M  V30 27 H 0.494177 2.944451 0.591519 0
M  V30 28 H 4.014947 3.618586 3.316941 0
M  V30 29 H 2.646725 3.776747 4.529895 0
M  V30 30 H 2.210542 -0.881089 3.156717 0
M  V30 31 H -0.860921 -5.520613 -1.670331 0
M  V30 32 H -2.524932 -5.857113 -3.515686 0
M  V30 33 H -4.201540 -4.114213 -4.027415 0
M  V30 34 H -4.250702 -2.077301 -2.757063 0
M  V30 35 H -2.697892 -1.661560 -0.969190 0
M  V30 END ATOM
M  V30 BEGIN BOND
M  V30 1 2 1 2 CFG=2
M  V30 2 1 2 3
M  V30 3 1 3 4
M  V30 4 2 4 5
M  V30 5 1 4 6
M  V30 6 2 6 7
M  V30 7 1 7 8
M  V30 8 2 8 9
M  V30 9 1 9 10
M  V30 10 1 10 11
M  V30 11 1 11 12
M  V30 12 1 12 13
M  V30 13 1 12 14
M  V30 14 1 12 15
M  V30 15 1 9 16
M  V30 16 2 16 17
M  V30 17 1 2 18
M  V30 18 2 18 19
M  V30 19 1 19 20
M  V30 20 2 20 21
M  V30 21 1 21 22
M  V30 22 2 22 23
M  V30 23 1 17 6
M  V30 24 1 23 18
M  V30 25 1 1 24
M  V30 26 1 3 25
M  V30 27 1 7 26
M  V30 28 1 8 27
M  V30 29 1 11 28
M  V30 30 1 11 29
M  V30 31 1 17 30
M  V30 32 1 19 31
M  V30 33 1 20 32
M  V30 34 1 21 33
M  V30 35 1 22 34
M  V30 36 1 23 35
M  V30 END BOND
M  V30 END CTAB
M  END
>  <Dataset>  (248) 
ChEMBL_Kinases

>  <Ligand_Instance>  (248) 
nan

>  <PDB_ID>  (248) 
nan

>  <Standardized_SMILES>  (248) 
N=C(NC(=O)c1ccc(OCC(F)(F)F)nc1)c1ccccc1

>  <Name>  (248) 
nan

>  <Pocket>  (248) 
nan

>  <ATP_Site>  (248) 
nan

>  <Peripheral>  (248) 
nan

>  <Num_H_Atoms_ProtBoundConf>  (248) 
nan

>  <Num_Resolved_Atoms>  (248) 
nan

>  <Num_Not_Resolved_Atoms>  (248) 
nan

$$$$
CHEMBL1587635
     RDKit          3D

  0  0  0  0  0  0  0  0  0  0999 V3000
M  V30 BEGIN CTAB
M  V30 COUNTS 50 52 0 0 0
M  V30 BEGIN ATOM
M  V30 1 C 2.632851 -3.124646 3.405750 0
M  V30 2 C 1.747982 -3.921819 2.460367 0
M  V30 3 O 2.319425 -4.054996 1.178494 0
M  V30 4 C 2.625666 -2.975393 0.383594 0
M  V30 5 O 2.176005 -2.250923 1.335832 0
M  V30 6 C 3.216157 -2.839701 -0.964619 0
M  V30 7 N 3.312503 -1.427428 -1.342396 0
M  V30 8 C 2.061997 -0.727018 -1.388924 0
M  V30 9 O 1.292523 -1.668392 -1.066084 0
M  V30 10 C 2.307896 0.679333 -1.773821 0
M  V30 11 S 0.806186 1.665451 -1.833896 0
M  V30 12 C 0.031977 1.934210 -0.280812 0
M  V30 13 N 0.480055 2.980701 0.447117 0
M  V30 14 C -0.230790 3.069323 1.605088 0
M  V30 15 C -0.121226 3.983522 2.655808 0
M  V30 16 C -0.994280 3.817929 3.714148 0
M  V30 17 C -1.900887 2.780121 3.667106 0
M  V30 18 N -1.969355 1.920071 2.628165 0
M  V30 19 C -1.140434 2.031718 1.563046 0
M  V30 20 N -0.958006 1.363392 0.410131 0
M  V30 21 C -1.758902 0.253312 0.040445 0
M  V30 22 C -1.503309 -0.949532 0.921344 0
M  V30 23 C -2.431531 -2.103699 0.567121 0
M  V30 24 C -2.436436 -2.447101 -0.884723 0
M  V30 25 C -2.736568 -1.223193 -1.682638 0
M  V30 26 C -1.800302 -0.066666 -1.416672 0
M  V30 27 H 2.735116 -3.658448 4.371013 0
M  V30 28 H 3.683485 -3.033847 3.020956 0
M  V30 29 H 2.185101 -2.132260 3.661592 0
M  V30 30 H 0.752886 -3.416394 2.444542 0
M  V30 31 H 1.628439 -4.929648 2.888647 0
M  V30 32 H 2.638800 -3.379517 -1.711800 0
M  V30 33 H 4.240820 -3.304987 -0.971290 0
M  V30 34 H 4.296491 -1.053953 -1.546495 0
M  V30 35 H 3.057245 1.094482 -1.055910 0
M  V30 36 H 2.787867 0.729697 -2.777552 0
M  V30 37 H 0.631072 4.766254 2.588073 0
M  V30 38 H -0.934734 4.514046 4.547050 0
M  V30 39 H -2.596650 2.626646 4.483472 0
M  V30 40 H -2.857954 0.507083 0.284091 0
M  V30 41 H -0.481188 -1.310133 0.915725 0
M  V30 42 H -1.847289 -0.675095 1.970321 0
M  V30 43 H -2.097273 -2.963392 1.193038 0
M  V30 44 H -3.454473 -1.780296 0.841640 0
M  V30 45 H -3.302655 -3.142433 -1.039475 0
M  V30 46 H -1.540203 -2.992703 -1.238350 0
M  V30 47 H -2.664077 -1.468203 -2.764172 0
M  V30 48 H -3.788860 -0.893906 -1.497169 0
M  V30 49 H -0.847501 -0.250953 -1.898659 0
M  V30 50 H -2.352137 0.807945 -1.888990 0
M  V30 END ATOM
M  V30 BEGIN BOND
M  V30 1 1 1 2
M  V30 2 1 2 3
M  V30 3 1 3 4
M  V30 4 2 4 5
M  V30 5 1 4 6
M  V30 6 1 6 7
M  V30 7 1 7 8
M  V30 8 2 8 9
M  V30 9 1 8 10
M  V30 10 1 10 11
M  V30 11 1 11 12
M  V30 12 2 12 13
M  V30 13 1 13 14
M  V30 14 2 14 15
M  V30 15 1 15 16
M  V30 16 2 16 17
M  V30 17 1 17 18
M  V30 18 2 18 19
M  V30 19 1 19 20
M  V30 20 1 20 21
M  V30 21 1 21 22
M  V30 22 1 22 23
M  V30 23 1 23 24
M  V30 24 1 24 25
M  V30 25 1 25 26
M  V30 26 1 20 12
M  V30 27 1 26 21
M  V30 28 1 19 14
M  V30 29 1 1 27
M  V30 30 1 1 28
M  V30 31 1 1 29
M  V30 32 1 2 30
M  V30 33 1 2 31
M  V30 34 1 6 32
M  V30 35 1 6 33
M  V30 36 1 7 34
M  V30 37 1 10 35
M  V30 38 1 10 36
M  V30 39 1 15 37
M  V30 40 1 16 38
M  V30 41 1 17 39
M  V30 42 1 21 40
M  V30 43 1 22 41
M  V30 44 1 22 42
M  V30 45 1 23 43
M  V30 46 1 23 44
M  V30 47 1 24 45
M  V30 48 1 24 46
M  V30 49 1 25 47
M  V30 50 1 25 48
M  V30 51 1 26 49
M  V30 52 1 26 50
M  V30 END BOND
M  V30 END CTAB
M  END
>  <Dataset>  (249) 
ChEMBL_Kinases

>  <Ligand_Instance>  (249) 
nan

>  <PDB_ID>  (249) 
nan

>  <Standardized_SMILES>  (249) 
CCOC(=O)CNC(=O)CSc1nc2cccnc2n1C1CCCCC1

>  <Name>  (249) 
nan

>  <Pocket>  (249) 
nan

>  <ATP_Site>  (249) 
nan

>  <Peripheral>  (249) 
nan

>  <Num_H_Atoms_ProtBoundConf>  (249) 
nan

>  <Num_Resolved_Atoms>  (249) 
nan

>  <Num_Not_Resolved_Atoms>  (249) 
nan

$$$$
CHEMBL1587522
     RDKit          3D

  0  0  0  0  0  0  0  0  0  0999 V3000
M  V30 BEGIN CTAB
M  V30 COUNTS 56 60 0 0 0
M  V30 BEGIN ATOM
M  V30 1 C 1.121680 -2.487769 2.531887 0
M  V30 2 C 0.129653 -1.817944 1.612528 0
M  V30 3 N 0.680975 -1.742271 0.240367 0
M  V30 4 C 1.762404 -0.805191 0.415399 0
M  V30 5 C 1.264454 0.569566 0.694013 0
M  V30 6 O 0.140058 1.147621 0.816999 0
M  V30 7 N 2.261580 1.599337 0.894639 0
M  V30 8 C 1.580999 2.827132 1.145578 0
M  V30 9 C 1.243235 3.683109 0.110426 0
M  V30 10 C 0.569030 4.876714 0.370093 0
M  V30 11 C 0.258602 5.156828 1.702425 0
M  V30 12 C 0.586985 4.313618 2.760334 0
M  V30 13 C 1.263917 3.121330 2.474623 0
M  V30 14 O 0.224544 4.698031 4.057887 0
M  V30 15 C -0.961176 5.423663 4.320834 0
M  V30 16 C -1.417759 6.233232 3.154002 0
M  V30 17 O -0.418567 6.317850 2.122239 0
M  V30 18 C 0.062650 -2.560563 -0.738288 0
M  V30 19 N -0.452855 -3.730320 -0.263894 0
M  V30 20 C -1.022968 -4.662685 -1.033970 0
M  V30 21 C -1.565934 -5.900680 -0.483884 0
M  V30 22 C -1.486729 -6.100658 0.895394 0
M  V30 23 C -2.010226 -7.276785 1.388928 0
M  V30 24 C -2.601688 -8.262796 0.628951 0
M  V30 25 N -2.654167 -8.019468 -0.712526 0
M  V30 26 C -2.148257 -6.870452 -1.238420 0
M  V30 27 N -1.083517 -4.416146 -2.349895 0
M  V30 28 C -0.624354 -3.320972 -2.952361 0
M  V30 29 C -0.688813 -3.042952 -4.299218 0
M  V30 30 C -0.188885 -1.864984 -4.784965 0
M  V30 31 C 0.381055 -0.949201 -3.934923 0
M  V30 32 C 0.440852 -1.237487 -2.591084 0
M  V30 33 C -0.058204 -2.419409 -2.099123 0
M  V30 34 H 1.659197 -1.715275 3.117574 0
M  V30 35 H 0.630606 -3.161025 3.261701 0
M  V30 36 H 1.834876 -3.134038 1.973542 0
M  V30 37 H -0.771406 -2.469075 1.624006 0
M  V30 38 H -0.213808 -0.845950 1.965536 0
M  V30 39 H 2.422165 -1.060879 1.301376 0
M  V30 40 H 2.456744 -0.778328 -0.420865 0
M  V30 41 H 3.297315 1.346852 0.837072 0
M  V30 42 H 1.488893 3.455045 -0.917813 0
M  V30 43 H 0.270864 5.594516 -0.375797 0
M  V30 44 H 1.515269 2.477700 3.279330 0
M  V30 45 H -0.820404 6.081700 5.227399 0
M  V30 46 H -1.751242 4.699648 4.607332 0
M  V30 47 H -2.284746 5.721692 2.680872 0
M  V30 48 H -1.699947 7.269646 3.425875 0
M  V30 49 H -1.029762 -5.359725 1.559689 0
M  V30 50 H -1.952314 -7.440396 2.468305 0
M  V30 51 H -2.995235 -9.166839 1.074488 0
M  V30 52 H -2.210984 -6.721748 -2.289624 0
M  V30 53 H -1.162354 -3.845580 -4.873495 0
M  V30 54 H -0.274279 -1.716240 -5.846177 0
M  V30 55 H 0.746068 -0.039838 -4.433356 0
M  V30 56 H 0.879413 -0.477029 -1.979117 0
M  V30 END ATOM
M  V30 BEGIN BOND
M  V30 1 1 1 2
M  V30 2 1 2 3
M  V30 3 1 3 4
M  V30 4 1 4 5
M  V30 5 2 5 6
M  V30 6 1 5 7
M  V30 7 1 7 8
M  V30 8 2 8 9
M  V30 9 1 9 10
M  V30 10 2 10 11
M  V30 11 1 11 12
M  V30 12 2 12 13
M  V30 13 1 12 14
M  V30 14 1 14 15
M  V30 15 1 15 16
M  V30 16 1 16 17
M  V30 17 1 3 18
M  V30 18 2 18 19
M  V30 19 1 19 20
M  V30 20 1 20 21
M  V30 21 2 21 22
M  V30 22 1 22 23
M  V30 23 2 23 24
M  V30 24 1 24 25
M  V30 25 2 25 26
M  V30 26 2 20 27
M  V30 27 1 27 28
M  V30 28 2 28 29
M  V30 29 1 29 30
M  V30 30 2 30 31
M  V30 31 1 31 32
M  V30 32 2 32 33
M  V30 33 1 13 8
M  V30 34 1 33 18
M  V30 35 1 17 11
M  V30 36 1 26 21
M  V30 37 1 33 28
M  V30 38 1 1 34
M  V30 39 1 1 35
M  V30 40 1 1 36
M  V30 41 1 2 37
M  V30 42 1 2 38
M  V30 43 1 4 39
M  V30 44 1 4 40
M  V30 45 1 7 41
M  V30 46 1 9 42
M  V30 47 1 10 43
M  V30 48 1 13 44
M  V30 49 1 15 45
M  V30 50 1 15 46
M  V30 51 1 16 47
M  V30 52 1 16 48
M  V30 53 1 22 49
M  V30 54 1 23 50
M  V30 55 1 24 51
M  V30 56 1 26 52
M  V30 57 1 29 53
M  V30 58 1 30 54
M  V30 59 1 31 55
M  V30 60 1 32 56
M  V30 END BOND
M  V30 END CTAB
M  END
>  <Dataset>  (250) 
ChEMBL_Kinases

>  <Ligand_Instance>  (250) 
nan

>  <PDB_ID>  (250) 
nan

>  <Standardized_SMILES>  (250) 
CCN(CC(=O)Nc1ccc2c(c1)OCCO2)c1nc(-c2cccnc2)nc2ccccc12

>  <Name>  (250) 
nan

>  <Pocket>  (250) 
nan

>  <ATP_Site>  (250) 
nan

>  <Peripheral>  (250) 
nan

>  <Num_H_Atoms_ProtBoundConf>  (250) 
nan

>  <Num_Resolved_Atoms>  (250) 
nan

>  <Num_Not_Resolved_Atoms>  (250) 
nan

$$$$
CHEMBL1587512
     RDKit          3D

  0  0  0  0  0  0  0  0  0  0999 V3000
M  V30 BEGIN CTAB
M  V30 COUNTS 35 36 0 0 0
M  V30 BEGIN ATOM
M  V30 1 C -0.199359 -0.612486 2.529687 0
M  V30 2 C -0.958766 -0.893083 1.255493 0
M  V30 3 C -2.150529 -1.776598 1.587250 0
M  V30 4 C -0.012300 -1.656422 0.336141 0
M  V30 5 O 0.326111 -2.805461 1.000831 0
M  V30 6 C 1.161595 -3.695116 0.431810 0
M  V30 7 C 2.562953 -3.227085 0.238537 0
M  V30 8 C 3.137171 -2.043813 0.805058 0
M  V30 9 O 2.717367 -2.060024 -0.530206 0
M  V30 10 C -1.498297 0.339137 0.618647 0
M  V30 11 O -0.566254 1.283915 0.253559 0
M  V30 12 C -1.272946 2.339998 -0.314606 0
M  V30 13 C -0.334989 3.442337 -0.754266 0
M  V30 14 C 1.115208 3.218061 -0.672133 0
M  V30 15 O 0.468479 4.045146 0.248606 0
M  V30 16 H 0.731208 -0.061836 2.291491 0
M  V30 17 H 0.101455 -1.612142 2.939903 0
M  V30 18 H -0.802837 -0.018350 3.240605 0
M  V30 19 H -1.853211 -2.730219 2.056113 0
M  V30 20 H -2.640020 -2.006317 0.627464 0
M  V30 21 H -2.826728 -1.181300 2.246504 0
M  V30 22 H -0.564976 -1.907132 -0.628477 0
M  V30 23 H 0.805651 -1.025373 0.038857 0
M  V30 24 H 1.147700 -4.620257 1.099115 0
M  V30 25 H 0.715117 -4.090879 -0.527248 0
M  V30 26 H 3.281578 -4.066861 -0.028049 0
M  V30 27 H 4.238207 -2.019614 0.989572 0
M  V30 28 H 2.570375 -1.378387 1.467691 0
M  V30 29 H -2.164393 0.823052 1.359603 0
M  V30 30 H -2.159650 0.041877 -0.219282 0
M  V30 31 H -1.824330 2.031600 -1.234155 0
M  V30 32 H -2.012644 2.794333 0.385040 0
M  V30 33 H -0.677825 4.161933 -1.514688 0
M  V30 34 H 1.551553 2.316940 -0.224502 0
M  V30 35 H 1.782488 3.778971 -1.370676 0
M  V30 END ATOM
M  V30 BEGIN BOND
M  V30 1 1 1 2
M  V30 2 1 2 3
M  V30 3 1 2 4
M  V30 4 1 4 5
M  V30 5 1 5 6
M  V30 6 1 6 7
M  V30 7 1 7 8
M  V30 8 1 8 9
M  V30 9 1 2 10
M  V30 10 1 10 11
M  V30 11 1 11 12
M  V30 12 1 12 13
M  V30 13 1 13 14
M  V30 14 1 14 15
M  V30 15 1 9 7
M  V30 16 1 15 13
M  V30 17 1 1 16
M  V30 18 1 1 17
M  V30 19 1 1 18
M  V30 20 1 3 19
M  V30 21 1 3 20
M  V30 22 1 3 21
M  V30 23 1 4 22
M  V30 24 1 4 23
M  V30 25 1 6 24
M  V30 26 1 6 25
M  V30 27 1 7 26
M  V30 28 1 8 27
M  V30 29 1 8 28
M  V30 30 1 10 29
M  V30 31 1 10 30
M  V30 32 1 12 31
M  V30 33 1 12 32
M  V30 34 1 13 33
M  V30 35 1 14 34
M  V30 36 1 14 35
M  V30 END BOND
M  V30 END CTAB
M  END
>  <Dataset>  (251) 
ChEMBL_Kinases

>  <Ligand_Instance>  (251) 
nan

>  <PDB_ID>  (251) 
nan

>  <Standardized_SMILES>  (251) 
CC(C)(COCC1CO1)COCC1CO1

>  <Name>  (251) 
nan

>  <Pocket>  (251) 
nan

>  <ATP_Site>  (251) 
nan

>  <Peripheral>  (251) 
nan

>  <Num_H_Atoms_ProtBoundConf>  (251) 
nan

>  <Num_Resolved_Atoms>  (251) 
nan

>  <Num_Not_Resolved_Atoms>  (251) 
nan

$$$$
CHEMBL1587353
     RDKit          3D

  0  0  0  0  0  0  0  0  0  0999 V3000
M  V30 BEGIN CTAB
M  V30 COUNTS 39 40 0 0 0
M  V30 BEGIN ATOM
M  V30 1 C -0.190701 -4.635803 1.795168 0
M  V30 2 N 1.180692 -4.625181 2.254502 0
M  V30 3 C 1.390976 -3.799068 3.396126 0
M  V30 4 S 2.284469 -4.297461 0.970353 0
M  V30 5 O 3.664364 -4.302998 1.588925 0
M  V30 6 O 2.264701 -5.352776 -0.072995 0
M  V30 7 C 1.915969 -2.704517 0.335297 0
M  V30 8 C 1.009933 -2.643837 -0.706006 0
M  V30 9 C 0.730986 -1.393408 -1.193759 0
M  V30 10 C 1.326200 -0.249610 -0.670697 0
M  V30 11 O 1.229917 1.046206 -0.956978 0
M  V30 12 C 2.016637 1.746684 -0.154722 0
M  V30 13 S 1.917870 3.494433 -0.504984 0
M  V30 14 C 0.574726 4.179067 0.529666 0
M  V30 15 C -0.732581 3.601827 0.095297 0
M  V30 16 O -1.345287 4.195112 -0.820392 0
M  V30 17 N -1.293551 2.430220 0.670810 0
M  V30 18 C -2.527379 1.777691 0.352446 0
M  V30 19 C -3.758588 2.640763 0.553119 0
M  V30 20 F -3.859541 3.050352 1.869514 0
M  V30 21 F -3.804334 3.712622 -0.304496 0
M  V30 22 F -4.856983 1.811620 0.291611 0
M  V30 23 N 2.647549 0.879062 0.682718 0
M  V30 24 C 2.222535 -0.378452 0.368756 0
M  V30 25 C 2.536038 -1.612405 0.893926 0
M  V30 26 H -0.502653 -3.553641 1.769949 0
M  V30 27 H -0.178555 -4.963480 0.744782 0
M  V30 28 H -0.867675 -5.170821 2.457461 0
M  V30 29 H 2.320690 -3.212375 3.248382 0
M  V30 30 H 0.559474 -3.037029 3.447220 0
M  V30 31 H 1.415030 -4.339072 4.365149 0
M  V30 32 H 0.546527 -3.524695 -1.114595 0
M  V30 33 H 0.036676 -1.234550 -2.007031 0
M  V30 34 H 0.563069 5.283241 0.491482 0
M  V30 35 H 0.753313 3.883215 1.582966 0
M  V30 36 H -0.657075 2.042237 1.432140 0
M  V30 37 H -2.644393 0.926601 1.039012 0
M  V30 38 H -2.545314 1.317226 -0.674511 0
M  V30 39 H 3.243235 -1.627804 1.700501 0
M  V30 END ATOM
M  V30 BEGIN BOND
M  V30 1 1 1 2
M  V30 2 1 2 3
M  V30 3 1 2 4
M  V30 4 2 4 5
M  V30 5 2 4 6
M  V30 6 1 4 7
M  V30 7 2 7 8
M  V30 8 1 8 9
M  V30 9 2 9 10
M  V30 10 1 10 11
M  V30 11 1 11 12
M  V30 12 1 12 13
M  V30 13 1 13 14
M  V30 14 1 14 15
M  V30 15 2 15 16
M  V30 16 1 15 17
M  V30 17 1 17 18
M  V30 18 1 18 19
M  V30 19 1 19 20
M  V30 20 1 19 21
M  V30 21 1 19 22
M  V30 22 2 12 23
M  V30 23 1 23 24
M  V30 24 2 24 25
M  V30 25 1 25 7
M  V30 26 1 24 10
M  V30 27 1 1 26
M  V30 28 1 1 27
M  V30 29 1 1 28
M  V30 30 1 3 29
M  V30 31 1 3 30
M  V30 32 1 3 31
M  V30 33 1 8 32
M  V30 34 1 9 33
M  V30 35 1 14 34
M  V30 36 1 14 35
M  V30 37 1 17 36
M  V30 38 1 18 37
M  V30 39 1 18 38
M  V30 40 1 25 39
M  V30 END BOND
M  V30 END CTAB
M  END
>  <Dataset>  (252) 
ChEMBL_Kinases

>  <Ligand_Instance>  (252) 
nan

>  <PDB_ID>  (252) 
nan

>  <Standardized_SMILES>  (252) 
CN(C)S(=O)(=O)c1ccc2oc(SCC(=O)NCC(F)(F)F)nc2c1

>  <Name>  (252) 
nan

>  <Pocket>  (252) 
nan

>  <ATP_Site>  (252) 
nan

>  <Peripheral>  (252) 
nan

>  <Num_H_Atoms_ProtBoundConf>  (252) 
nan

>  <Num_Resolved_Atoms>  (252) 
nan

>  <Num_Not_Resolved_Atoms>  (252) 
nan

$$$$
CHEMBL1587288
     RDKit          3D

  0  0  0  0  0  0  0  0  0  0999 V3000
M  V30 BEGIN CTAB
M  V30 COUNTS 54 57 0 0 0
M  V30 BEGIN ATOM
M  V30 1 C 2.711064 -5.810933 3.807148 0
M  V30 2 O 2.328501 -6.333000 2.558520 0
M  V30 3 C 2.100890 -5.525798 1.447008 0
M  V30 4 C 2.207736 -4.135019 1.385193 0
M  V30 5 C 1.942637 -3.495379 0.189696 0
M  V30 6 N 2.076679 -2.055849 0.212802 0
M  V30 7 C 0.799065 -1.497171 0.574991 0
M  V30 8 O -0.065347 -2.420993 0.766955 0
M  V30 9 C 0.547502 -0.066789 0.700145 0
M  V30 10 C 1.448948 0.961285 0.502631 0
M  V30 11 C 1.043851 2.270034 0.663576 0
M  V30 12 C -0.238050 2.557071 1.015748 0
M  V30 13 C -0.670470 3.863578 1.183850 0
M  V30 14 O 0.173463 4.788983 0.997427 0
M  V30 15 N -1.933041 4.214398 1.533481 0
M  V30 16 C -2.257642 5.623137 1.677102 0
M  V30 17 C -2.723736 6.144236 0.373936 0
M  V30 18 C -3.987975 6.215560 -0.181205 0
M  V30 19 C -3.866855 6.790528 -1.419667 0
M  V30 20 C -2.543342 7.053815 -1.588783 0
M  V30 21 O -1.928938 6.660530 -0.522819 0
M  V30 22 C -2.794516 3.178241 1.720051 0
M  V30 23 S -4.307689 3.556212 2.137361 0
M  V30 24 N -2.405210 1.910527 1.564980 0
M  V30 25 C -1.150804 1.564861 1.217727 0
M  V30 26 C -0.748729 0.256827 1.057615 0
M  V30 27 C 1.575876 -4.139992 -0.959861 0
M  V30 28 C 1.463896 -5.528322 -0.917921 0
M  V30 29 O 1.095084 -6.236730 -2.054052 0
M  V30 30 C 0.841572 -5.511319 -3.234839 0
M  V30 31 C 1.730541 -6.172582 0.284838 0
M  V30 32 O 1.598947 -7.560449 0.253782 0
M  V30 33 C 0.390380 -8.237414 0.541934 0
M  V30 34 H 2.329224 -6.500810 4.602783 0
M  V30 35 H 3.826998 -5.830729 3.900858 0
M  V30 36 H 2.369640 -4.792250 4.013433 0
M  V30 37 H 2.498219 -3.662677 2.308270 0
M  V30 38 H 2.855005 -1.353172 0.034706 0
M  V30 39 H 2.446160 0.638504 0.224616 0
M  V30 40 H 1.787451 3.037840 0.497378 0
M  V30 41 H -1.323210 6.136868 1.980513 0
M  V30 42 H -3.027963 5.716704 2.476948 0
M  V30 43 H -4.878722 5.867644 0.311634 0
M  V30 44 H -4.719575 6.954001 -2.050228 0
M  V30 45 H -2.102688 7.511627 -2.466861 0
M  V30 46 H -3.069331 1.124048 1.709313 0
M  V30 47 H -1.521298 -0.496716 1.232092 0
M  V30 48 H 1.384230 -3.579746 -1.856347 0
M  V30 49 H 0.162160 -4.655175 -3.087312 0
M  V30 50 H 1.798198 -5.085760 -3.654425 0
M  V30 51 H 0.427003 -6.153989 -4.038044 0
M  V30 52 H 0.403771 -9.180850 -0.035415 0
M  V30 53 H 0.282085 -8.442687 1.630773 0
M  V30 54 H -0.490686 -7.658210 0.184665 0
M  V30 END ATOM
M  V30 BEGIN BOND
M  V30 1 1 1 2
M  V30 2 1 2 3
M  V30 3 2 3 4
M  V30 4 1 4 5
M  V30 5 1 5 6
M  V30 6 1 6 7
M  V30 7 2 7 8
M  V30 8 1 7 9
M  V30 9 2 9 10
M  V30 10 1 10 11
M  V30 11 2 11 12
M  V30 12 1 12 13
M  V30 13 2 13 14
M  V30 14 1 13 15
M  V30 15 1 15 16
M  V30 16 1 16 17
M  V30 17 2 17 18
M  V30 18 1 18 19
M  V30 19 2 19 20
M  V30 20 1 20 21
M  V30 21 1 15 22
M  V30 22 2 22 23
M  V30 23 1 22 24
M  V30 24 1 24 25
M  V30 25 2 25 26
M  V30 26 2 5 27
M  V30 27 1 27 28
M  V30 28 1 28 29
M  V30 29 1 29 30
M  V30 30 2 28 31
M  V30 31 1 31 32
M  V30 32 1 32 33
M  V30 33 1 31 3
M  V30 34 1 26 9
M  V30 35 1 25 12
M  V30 36 1 21 17
M  V30 37 1 1 34
M  V30 38 1 1 35
M  V30 39 1 1 36
M  V30 40 1 4 37
M  V30 41 1 6 38
M  V30 42 1 10 39
M  V30 43 1 11 40
M  V30 44 1 16 41
M  V30 45 1 16 42
M  V30 46 1 18 43
M  V30 47 1 19 44
M  V30 48 1 20 45
M  V30 49 1 24 46
M  V30 50 1 26 47
M  V30 51 1 27 48
M  V30 52 1 30 49
M  V30 53 1 30 50
M  V30 54 1 30 51
M  V30 55 1 33 52
M  V30 56 1 33 53
M  V30 57 1 33 54
M  V30 END BOND
M  V30 END CTAB
M  END
>  <Dataset>  (253) 
ChEMBL_Kinases

>  <Ligand_Instance>  (253) 
nan

>  <PDB_ID>  (253) 
nan

>  <Standardized_SMILES>  (253) 
COc1cc(NC(=O)c2ccc3c(=O)n(Cc4ccco4)c(=S)[nH]c3c2)cc(OC)c1OC

>  <Name>  (253) 
nan

>  <Pocket>  (253) 
nan

>  <ATP_Site>  (253) 
nan

>  <Peripheral>  (253) 
nan

>  <Num_H_Atoms_ProtBoundConf>  (253) 
nan

>  <Num_Resolved_Atoms>  (253) 
nan

>  <Num_Not_Resolved_Atoms>  (253) 
nan

$$$$
CHEMBL1587280
     RDKit          3D

  0  0  0  0  0  0  0  0  0  0999 V3000
M  V30 BEGIN CTAB
M  V30 COUNTS 39 40 0 0 0
M  V30 BEGIN ATOM
M  V30 1 C -0.295466 -5.813402 6.063487 0
M  V30 2 O 0.101131 -4.696774 5.299546 0
M  V30 3 C 1.062810 -4.715549 4.331919 0
M  V30 4 O 1.836516 -5.560586 3.822607 0
M  V30 5 C 1.196796 -3.346111 3.752152 0
M  V30 6 S 2.419705 -3.004082 2.403103 0
M  V30 7 C 1.884792 -1.183344 2.354829 0
M  V30 8 N 2.344859 -0.046603 1.520868 0
M  V30 9 C 1.656044 0.166861 0.276481 0
M  V30 10 O 0.759135 -0.707343 0.156121 0
M  V30 11 C 2.235409 1.335869 -0.432608 0
M  V30 12 O 1.576013 1.570031 -1.661230 0
M  V30 13 C 0.228589 1.856763 -1.781646 0
M  V30 14 C -0.692871 1.965248 -0.741212 0
M  V30 15 C -2.014355 2.260470 -1.042335 0
M  V30 16 C -2.478785 2.456051 -2.326973 0
M  V30 17 C -1.526411 2.337348 -3.317260 0
M  V30 18 C -0.179421 2.042957 -3.094164 0
M  V30 19 O 0.681091 1.950826 -4.182439 0
M  V30 20 C 0.121695 2.165892 -5.462590 0
M  V30 21 N 1.070423 -1.152389 3.169310 0
M  V30 22 C 0.606611 -2.110337 3.949306 0
M  V30 23 C -0.453087 -2.008459 4.989637 0
M  V30 24 H 0.206974 -6.760330 5.714731 0
M  V30 25 H -0.193172 -5.667509 7.138833 0
M  V30 26 H -1.390055 -5.977182 5.858026 0
M  V30 27 H 3.134103 0.486138 1.934274 0
M  V30 28 H 2.130207 2.223849 0.204517 0
M  V30 29 H 3.318019 1.208709 -0.634476 0
M  V30 30 H -0.315847 1.812810 0.238923 0
M  V30 31 H -2.717342 2.340171 -0.209772 0
M  V30 32 H -3.504794 2.684059 -2.545796 0
M  V30 33 H -1.904368 2.494817 -4.340158 0
M  V30 34 H -0.686517 1.426936 -5.669068 0
M  V30 35 H 0.946228 2.046518 -6.201063 0
M  V30 36 H -0.369951 3.160884 -5.533891 0
M  V30 37 H -1.344820 -2.539310 4.596704 0
M  V30 38 H -0.748281 -0.954383 5.175094 0
M  V30 39 H -0.114645 -2.390320 5.972326 0
M  V30 END ATOM
M  V30 BEGIN BOND
M  V30 1 1 1 2
M  V30 2 1 2 3
M  V30 3 2 3 4
M  V30 4 1 3 5
M  V30 5 1 5 6
M  V30 6 1 6 7
M  V30 7 1 7 8
M  V30 8 1 8 9
M  V30 9 2 9 10
M  V30 10 1 9 11
M  V30 11 1 11 12
M  V30 12 1 12 13
M  V30 13 2 13 14
M  V30 14 1 14 15
M  V30 15 2 15 16
M  V30 16 1 16 17
M  V30 17 2 17 18
M  V30 18 1 18 19
M  V30 19 1 19 20
M  V30 20 2 7 21
M  V30 21 1 21 22
M  V30 22 1 22 23
M  V30 23 2 22 5
M  V30 24 1 18 13
M  V30 25 1 1 24
M  V30 26 1 1 25
M  V30 27 1 1 26
M  V30 28 1 8 27
M  V30 29 1 11 28
M  V30 30 1 11 29
M  V30 31 1 14 30
M  V30 32 1 15 31
M  V30 33 1 16 32
M  V30 34 1 17 33
M  V30 35 1 20 34
M  V30 36 1 20 35
M  V30 37 1 20 36
M  V30 38 1 23 37
M  V30 39 1 23 38
M  V30 40 1 23 39
M  V30 END BOND
M  V30 END CTAB
M  END
>  <Dataset>  (254) 
ChEMBL_Kinases

>  <Ligand_Instance>  (254) 
nan

>  <PDB_ID>  (254) 
nan

>  <Standardized_SMILES>  (254) 
COC(=O)c1sc(NC(=O)COc2ccccc2OC)nc1C

>  <Name>  (254) 
nan

>  <Pocket>  (254) 
nan

>  <ATP_Site>  (254) 
nan

>  <Peripheral>  (254) 
nan

>  <Num_H_Atoms_ProtBoundConf>  (254) 
nan

>  <Num_Resolved_Atoms>  (254) 
nan

>  <Num_Not_Resolved_Atoms>  (254) 
nan

$$$$
CHEMBL1587057
     RDKit          3D

  0  0  0  0  0  0  0  0  0  0999 V3000
M  V30 BEGIN CTAB
M  V30 COUNTS 29 30 0 0 0
M  V30 BEGIN ATOM
M  V30 1 C 2.210052 -3.462082 2.976621 0
M  V30 2 C 0.957079 -2.635432 2.995390 0
M  V30 3 O 0.152177 -3.324877 3.694482 0
M  V30 4 N 0.671063 -1.364967 2.390724 0
M  V30 5 C -0.697268 -1.086074 2.762404 0
M  V30 6 C -1.090000 0.237740 2.161944 0
M  V30 7 N -0.991426 0.193559 0.723629 0
M  V30 8 C -2.063447 -0.250051 0.004477 0
M  V30 9 C -1.808891 -0.242981 -1.350566 0
M  V30 10 C -0.537219 0.220393 -1.477719 0
M  V30 11 C 0.303036 0.468682 -2.534865 0
M  V30 12 C 1.581849 0.961208 -2.330427 0
M  V30 13 C 2.024180 1.208658 -1.040322 0
M  V30 14 C 1.193045 0.963769 0.020391 0
M  V30 15 C -0.073149 0.473790 -0.214884 0
M  V30 16 H 2.036433 -4.473838 2.566133 0
M  V30 17 H 2.606756 -3.472987 4.011812 0
M  V30 18 H 2.999848 -2.968205 2.374177 0
M  V30 19 H 1.556018 -1.131629 1.919494 0
M  V30 20 H -1.374231 -1.877440 2.354109 0
M  V30 21 H -0.837905 -1.089067 3.864187 0
M  V30 22 H -2.112706 0.523397 2.489604 0
M  V30 23 H -0.340522 0.978550 2.572239 0
M  V30 24 H -3.048623 -0.592303 0.359334 0
M  V30 25 H -2.439412 -0.528879 -2.158752 0
M  V30 26 H -0.021042 0.282698 -3.554220 0
M  V30 27 H 2.284207 1.173905 -3.132699 0
M  V30 28 H 3.029181 1.598749 -0.834872 0
M  V30 29 H 1.553813 1.163317 1.036869 0
M  V30 END ATOM
M  V30 BEGIN BOND
M  V30 1 1 1 2
M  V30 2 2 2 3
M  V30 3 1 2 4
M  V30 4 1 4 5
M  V30 5 1 5 6
M  V30 6 1 6 7
M  V30 7 1 7 8
M  V30 8 2 8 9
M  V30 9 1 9 10
M  V30 10 2 10 11
M  V30 11 1 11 12
M  V30 12 2 12 13
M  V30 13 1 13 14
M  V30 14 2 14 15
M  V30 15 1 15 7
M  V30 16 1 15 10
M  V30 17 1 1 16
M  V30 18 1 1 17
M  V30 19 1 1 18
M  V30 20 1 4 19
M  V30 21 1 5 20
M  V30 22 1 5 21
M  V30 23 1 6 22
M  V30 24 1 6 23
M  V30 25 1 8 24
M  V30 26 1 9 25
M  V30 27 1 11 26
M  V30 28 1 12 27
M  V30 29 1 13 28
M  V30 30 1 14 29
M  V30 END BOND
M  V30 END CTAB
M  END
>  <Dataset>  (255) 
ChEMBL_Kinases

>  <Ligand_Instance>  (255) 
nan

>  <PDB_ID>  (255) 
nan

>  <Standardized_SMILES>  (255) 
CC(=O)NCCn1ccc2ccccc21

>  <Name>  (255) 
nan

>  <Pocket>  (255) 
nan

>  <ATP_Site>  (255) 
nan

>  <Peripheral>  (255) 
nan

>  <Num_H_Atoms_ProtBoundConf>  (255) 
nan

>  <Num_Resolved_Atoms>  (255) 
nan

>  <Num_Not_Resolved_Atoms>  (255) 
nan

$$$$
CHEMBL1586711
     RDKit          3D

  0  0  0  0  0  0  0  0  0  0999 V3000
M  V30 BEGIN CTAB
M  V30 COUNTS 42 44 0 0 0
M  V30 BEGIN ATOM
M  V30 1 C 2.647847 -5.521925 2.000044 0
M  V30 2 O 1.901401 -4.965854 0.940160 0
M  V30 3 C 1.622932 -3.618023 0.830689 0
M  V30 4 C 2.070302 -2.714631 1.776009 0
M  V30 5 C 1.787169 -1.350819 1.663055 0
M  V30 6 C 1.035331 -0.953144 0.554764 0
M  V30 7 C 0.793884 0.484228 0.527188 0
M  V30 8 C 1.732517 1.259613 -0.132856 0
M  V30 9 C 2.890196 0.734466 -0.768335 0
M  V30 10 N 3.847140 0.304950 -1.270521 0
M  V30 11 C 1.489003 2.624828 -0.150437 0
M  V30 12 N 2.380065 3.525373 -0.796856 0
M  V30 13 N 0.406035 3.151847 0.439730 0
M  V30 14 C -0.513437 2.403253 1.084978 0
M  V30 15 C -0.329099 1.029631 1.139294 0
M  V30 16 C -1.279209 0.099357 1.824956 0
M  V30 17 C -2.566802 0.877061 2.011417 0
M  V30 18 C -2.238770 2.145735 2.752357 0
M  V30 19 C -1.677565 3.109233 1.702592 0
M  V30 20 C 0.584852 -1.848056 -0.393421 0
M  V30 21 C 0.882712 -3.188185 -0.250864 0
M  V30 22 O 0.449260 -4.115648 -1.179871 0
M  V30 23 C -0.303239 -3.810745 -2.312489 0
M  V30 24 H 2.281149 -5.073486 2.964824 0
M  V30 25 H 3.725280 -5.379464 1.873709 0
M  V30 26 H 2.463589 -6.633206 1.995981 0
M  V30 27 H 2.661679 -3.045912 2.643123 0
M  V30 28 H 2.155598 -0.684241 2.422144 0
M  V30 29 H 3.405743 3.424539 -0.986097 0
M  V30 30 H 2.044361 4.445578 -1.167696 0
M  V30 31 H -1.551510 -0.742402 1.153253 0
M  V30 32 H -0.891318 -0.252089 2.801207 0
M  V30 33 H -2.913275 1.120097 0.967739 0
M  V30 34 H -3.371045 0.286211 2.475209 0
M  V30 35 H -1.433543 1.908553 3.487161 0
M  V30 36 H -3.124376 2.541054 3.260374 0
M  V30 37 H -1.323857 3.990882 2.305619 0
M  V30 38 H -2.457705 3.365957 0.983500 0
M  V30 39 H 0.013419 -1.465441 -1.215604 0
M  V30 40 H 0.239327 -3.029891 -2.895914 0
M  V30 41 H -0.329179 -4.761293 -2.921818 0
M  V30 42 H -1.341970 -3.470536 -2.106585 0
M  V30 END ATOM
M  V30 BEGIN BOND
M  V30 1 1 1 2
M  V30 2 1 2 3
M  V30 3 2 3 4
M  V30 4 1 4 5
M  V30 5 2 5 6
M  V30 6 1 6 7
M  V30 7 2 7 8
M  V30 8 1 8 9
M  V30 9 3 9 10
M  V30 10 1 8 11
M  V30 11 1 11 12
M  V30 12 2 11 13
M  V30 13 1 13 14
M  V30 14 2 14 15
M  V30 15 1 15 16
M  V30 16 1 16 17
M  V30 17 1 17 18
M  V30 18 1 18 19
M  V30 19 1 6 20
M  V30 20 2 20 21
M  V30 21 1 21 22
M  V30 22 1 22 23
M  V30 23 1 21 3
M  V30 24 1 15 7
M  V30 25 1 19 14
M  V30 26 1 1 24
M  V30 27 1 1 25
M  V30 28 1 1 26
M  V30 29 1 4 27
M  V30 30 1 5 28
M  V30 31 1 12 29
M  V30 32 1 12 30
M  V30 33 1 16 31
M  V30 34 1 16 32
M  V30 35 1 17 33
M  V30 36 1 17 34
M  V30 37 1 18 35
M  V30 38 1 18 36
M  V30 39 1 19 37
M  V30 40 1 19 38
M  V30 41 1 20 39
M  V30 42 1 23 40
M  V30 43 1 23 41
M  V30 44 1 23 42
M  V30 END BOND
M  V30 END CTAB
M  END
>  <Dataset>  (256) 
ChEMBL_Kinases

>  <Ligand_Instance>  (256) 
nan

>  <PDB_ID>  (256) 
nan

>  <Standardized_SMILES>  (256) 
COc1ccc(-c2c(C#N)c(N)nc3c2CCCC3)cc1OC

>  <Name>  (256) 
nan

>  <Pocket>  (256) 
nan

>  <ATP_Site>  (256) 
nan

>  <Peripheral>  (256) 
nan

>  <Num_H_Atoms_ProtBoundConf>  (256) 
nan

>  <Num_Resolved_Atoms>  (256) 
nan

>  <Num_Not_Resolved_Atoms>  (256) 
nan

$$$$
CHEMBL1586623
     RDKit          3D

  0  0  0  0  0  0  0  0  0  0999 V3000
M  V30 BEGIN CTAB
M  V30 COUNTS 41 44 0 0 0
M  V30 BEGIN ATOM
M  V30 1 C -3.028461 -5.207903 5.035892 0
M  V30 2 C -2.275138 -4.090669 4.449640 0
M  V30 3 C -1.740774 -2.969485 5.108635 0
M  V30 4 C -1.075050 -2.059861 4.336516 0
M  V30 5 C -0.971976 -2.285880 3.017260 0
M  V30 6 C -0.301165 -1.452831 1.964785 0
M  V30 7 N -1.208614 -0.486133 1.380757 0
M  V30 8 C -0.931921 0.478656 0.355434 0
M  V30 9 C 0.367556 0.455177 -0.107827 0
M  V30 10 C 0.706570 1.346878 -1.085998 0
M  V30 11 C 2.092642 1.424395 -1.676772 0
M  V30 12 N 3.083049 0.734853 -1.385384 0
M  V30 13 N 4.230963 0.895038 -1.965813 0
M  V30 14 C 5.432512 0.305682 -1.848741 0
M  V30 15 C 5.941904 -0.793127 -0.985765 0
M  V30 16 N 6.285538 0.874883 -2.710843 0
M  V30 17 N 5.694638 1.824534 -3.399790 0
M  V30 18 C 4.402683 1.829241 -2.923669 0
M  V30 19 S 2.647606 2.537738 -2.948652 0
M  V30 20 C -0.199251 2.244949 -1.604988 0
M  V30 21 C -1.490799 2.239219 -1.116722 0
M  V30 22 C -1.883401 1.354898 -0.125615 0
M  V30 23 C -3.258284 1.295208 0.444267 0
M  V30 24 S -1.798788 -3.807080 2.695922 0
M  V30 25 H -4.061554 -4.911785 5.213129 0
M  V30 26 H -2.958442 -6.061463 4.318826 0
M  V30 27 H -2.471348 -5.505344 5.964215 0
M  V30 28 H -1.887451 -2.889810 6.194345 0
M  V30 29 H -0.633816 -1.169787 4.763268 0
M  V30 30 H 0.514921 -0.925639 2.496597 0
M  V30 31 H 0.190745 -2.109860 1.224538 0
M  V30 32 H -2.203796 -0.487787 1.754786 0
M  V30 33 H 1.155328 -0.202711 0.225830 0
M  V30 34 H 5.139142 -1.119465 -0.284558 0
M  V30 35 H 6.173419 -1.700301 -1.614564 0
M  V30 36 H 6.860503 -0.442349 -0.476504 0
M  V30 37 H 0.084621 2.935890 -2.370831 0
M  V30 38 H -2.261149 2.921017 -1.479751 0
M  V30 39 H -3.977465 1.879833 -0.165425 0
M  V30 40 H -3.587239 0.246098 0.438921 0
M  V30 41 H -3.245623 1.759037 1.449730 0
M  V30 END ATOM
M  V30 BEGIN BOND
M  V30 1 1 1 2
M  V30 2 2 2 3
M  V30 3 1 3 4
M  V30 4 2 4 5
M  V30 5 1 5 6
M  V30 6 1 6 7
M  V30 7 1 7 8
M  V30 8 2 8 9
M  V30 9 1 9 10
M  V30 10 1 10 11
M  V30 11 2 11 12
M  V30 12 1 12 13
M  V30 13 1 13 14
M  V30 14 1 14 15
M  V30 15 2 14 16
M  V30 16 1 16 17
M  V30 17 2 17 18
M  V30 18 1 18 19
M  V30 19 2 10 20
M  V30 20 1 20 21
M  V30 21 2 21 22
M  V30 22 1 22 23
M  V30 23 1 5 24
M  V30 24 1 24 2
M  V30 25 1 22 8
M  V30 26 1 19 11
M  V30 27 1 18 13
M  V30 28 1 1 25
M  V30 29 1 1 26
M  V30 30 1 1 27
M  V30 31 1 3 28
M  V30 32 1 4 29
M  V30 33 1 6 30
M  V30 34 1 6 31
M  V30 35 1 7 32
M  V30 36 1 9 33
M  V30 37 1 15 34
M  V30 38 1 15 35
M  V30 39 1 15 36
M  V30 40 1 20 37
M  V30 41 1 21 38
M  V30 42 1 23 39
M  V30 43 1 23 40
M  V30 44 1 23 41
M  V30 END BOND
M  V30 END CTAB
M  END
>  <Dataset>  (257) 
ChEMBL_Kinases

>  <Ligand_Instance>  (257) 
nan

>  <PDB_ID>  (257) 
nan

>  <Standardized_SMILES>  (257) 
Cc1ccc(CNc2cc(-c3nn4c(C)nnc4s3)ccc2C)s1

>  <Name>  (257) 
nan

>  <Pocket>  (257) 
nan

>  <ATP_Site>  (257) 
nan

>  <Peripheral>  (257) 
nan

>  <Num_H_Atoms_ProtBoundConf>  (257) 
nan

>  <Num_Resolved_Atoms>  (257) 
nan

>  <Num_Not_Resolved_Atoms>  (257) 
nan

$$$$
CHEMBL1586534
     RDKit          3D

  0  0  0  0  0  0  0  0  0  0999 V3000
M  V30 BEGIN CTAB
M  V30 COUNTS 37 40 0 0 0
M  V30 BEGIN ATOM
M  V30 1 C 0.029545 -4.372668 4.613691 0
M  V30 2 O 1.406444 -4.107477 4.418614 0
M  V30 3 C 1.884779 -3.255224 3.451888 0
M  V30 4 C 3.194942 -2.952161 3.206160 0
M  V30 5 C 3.677671 -2.104443 2.245126 0
M  V30 6 C 2.764857 -1.462075 1.406882 0
M  V30 7 N 3.004476 -0.618546 0.429824 0
M  V30 8 C 2.346053 -0.058962 -0.288670 0
M  V30 9 N 2.542193 0.862442 -1.361345 0
M  V30 10 N 1.616235 1.692738 -1.700797 0
M  V30 11 C 0.375440 1.702980 -1.005827 0
M  V30 12 C 0.130524 2.261958 0.231096 0
M  V30 13 O 1.215038 2.874663 0.851261 0
M  V30 14 C -1.101691 2.225814 0.829671 0
M  V30 15 C -2.132323 1.604141 0.162444 0
M  V30 16 C -1.936069 1.029573 -1.078823 0
M  V30 17 C -2.956584 0.394899 -1.777381 0
M  V30 18 C -2.787440 -0.186269 -3.017071 0
M  V30 19 C -1.534041 -0.126735 -3.580974 0
M  V30 20 C -0.516217 0.497542 -2.901477 0
M  V30 21 C -0.684062 1.079277 -1.661370 0
M  V30 22 S 0.688144 -0.757652 0.395041 0
M  V30 23 C 1.469589 -1.723703 1.604874 0
M  V30 24 C 0.974150 -2.608890 2.609161 0
M  V30 25 H -0.455132 -3.597488 5.269618 0
M  V30 26 H -0.544264 -4.452748 3.670965 0
M  V30 27 H -0.007109 -5.332452 5.207793 0
M  V30 28 H 3.890104 -3.474350 3.883546 0
M  V30 29 H 4.774701 -1.999770 2.215634 0
M  V30 30 H 1.263257 3.899605 0.841860 0
M  V30 31 H -1.267447 2.671715 1.800297 0
M  V30 32 H -3.136651 1.526769 0.555712 0
M  V30 33 H -3.946484 0.360094 -1.307815 0
M  V30 34 H -3.644573 -0.670034 -3.506358 0
M  V30 35 H -1.352788 -0.568183 -4.551365 0
M  V30 36 H 0.447726 0.520304 -3.380617 0
M  V30 37 H -0.095345 -2.731109 2.661706 0
M  V30 END ATOM
M  V30 BEGIN BOND
M  V30 1 1 1 2
M  V30 2 1 2 3
M  V30 3 2 3 4
M  V30 4 1 4 5
M  V30 5 2 5 6
M  V30 6 1 6 7
M  V30 7 2 7 8
M  V30 8 1 8 9
M  V30 9 2 9 10 CFG=2
M  V30 10 1 10 11
M  V30 11 2 11 12
M  V30 12 1 12 13
M  V30 13 1 12 14
M  V30 14 2 14 15
M  V30 15 1 15 16
M  V30 16 2 16 17
M  V30 17 1 17 18
M  V30 18 2 18 19
M  V30 19 1 19 20
M  V30 20 2 20 21
M  V30 21 1 8 22
M  V30 22 1 22 23
M  V30 23 2 23 24
M  V30 24 1 24 3
M  V30 25 1 23 6
M  V30 26 1 21 11
M  V30 27 1 21 16
M  V30 28 1 1 25
M  V30 29 1 1 26
M  V30 30 1 1 27
M  V30 31 1 4 28
M  V30 32 1 5 29
M  V30 33 1 13 30
M  V30 34 1 14 31
M  V30 35 1 15 32
M  V30 36 1 17 33
M  V30 37 1 18 34
M  V30 38 1 19 35
M  V30 39 1 20 36
M  V30 40 1 24 37
M  V30 END BOND
M  V30 END CTAB
M  END
>  <Dataset>  (258) 
ChEMBL_Kinases

>  <Ligand_Instance>  (258) 
nan

>  <PDB_ID>  (258) 
nan

>  <Standardized_SMILES>  (258) 
COc1ccc2nc(N=Nc3c(O)ccc4ccccc34)sc2c1

>  <Name>  (258) 
nan

>  <Pocket>  (258) 
nan

>  <ATP_Site>  (258) 
nan

>  <Peripheral>  (258) 
nan

>  <Num_H_Atoms_ProtBoundConf>  (258) 
nan

>  <Num_Resolved_Atoms>  (258) 
nan

>  <Num_Not_Resolved_Atoms>  (258) 
nan

$$$$
CHEMBL1586443
     RDKit          3D

  0  0  0  0  0  0  0  0  0  0999 V3000
M  V30 BEGIN CTAB
M  V30 COUNTS 23 24 0 0 0
M  V30 BEGIN ATOM
M  V30 1 O 1.509608 -0.842815 2.698690 0
M  V30 2 C 0.861511 0.118819 2.232421 0
M  V30 3 N 0.286564 0.100445 0.943041 0
M  V30 4 C 0.207096 -0.804192 -0.141880 0
M  V30 5 C -0.805369 -1.731071 -0.285226 0
M  V30 6 C -0.806684 -2.582598 -1.383504 0
M  V30 7 C 0.202064 -2.503228 -2.330665 0
M  V30 8 F 0.250802 -3.315671 -3.430435 0
M  V30 9 C 1.234236 -1.585880 -2.220056 0
M  V30 10 C 1.208064 -0.751617 -1.115510 0
M  V30 11 C 0.605878 1.371277 2.925725 0
M  V30 12 C 1.017877 2.599791 2.547774 0
M  V30 13 C 0.740451 3.708664 3.242492 0
M  V30 14 Cl 1.103565 5.388140 3.043943 0
M  V30 15 S -0.249996 3.140615 4.693656 0
M  V30 16 C -0.158742 1.336646 4.137713 0
M  V30 17 Cl -0.853752 -0.157103 4.906532 0
M  V30 18 H -0.270471 0.873821 0.489765 0
M  V30 19 H -1.594080 -1.787629 0.462194 0
M  V30 20 H -1.596899 -3.312494 -1.503979 0
M  V30 21 H 2.027423 -1.516078 -2.954841 0
M  V30 22 H 1.993700 -0.029731 -1.000746 0
M  V30 23 H 1.601798 2.758732 1.652010 0
M  V30 END ATOM
M  V30 BEGIN BOND
M  V30 1 2 1 2
M  V30 2 1 2 3
M  V30 3 1 3 4
M  V30 4 2 4 5
M  V30 5 1 5 6
M  V30 6 2 6 7
M  V30 7 1 7 8
M  V30 8 1 7 9
M  V30 9 2 9 10
M  V30 10 1 2 11
M  V30 11 1 11 12
M  V30 12 2 12 13
M  V30 13 1 13 14
M  V30 14 1 13 15
M  V30 15 1 15 16
M  V30 16 1 16 17
M  V30 17 1 10 4
M  V30 18 2 16 11
M  V30 19 1 3 18
M  V30 20 1 5 19
M  V30 21 1 6 20
M  V30 22 1 9 21
M  V30 23 1 10 22
M  V30 24 1 12 23
M  V30 END BOND
M  V30 END CTAB
M  END
>  <Dataset>  (259) 
ChEMBL_Kinases

>  <Ligand_Instance>  (259) 
nan

>  <PDB_ID>  (259) 
nan

>  <Standardized_SMILES>  (259) 
O=C(Nc1ccc(F)cc1)c1cc(Cl)sc1Cl

>  <Name>  (259) 
nan

>  <Pocket>  (259) 
nan

>  <ATP_Site>  (259) 
nan

>  <Peripheral>  (259) 
nan

>  <Num_H_Atoms_ProtBoundConf>  (259) 
nan

>  <Num_Resolved_Atoms>  (259) 
nan

>  <Num_Not_Resolved_Atoms>  (259) 
nan

$$$$
CHEMBL1586416
     RDKit          3D

  0  0  0  0  0  0  0  0  0  0999 V3000
M  V30 BEGIN CTAB
M  V30 COUNTS 36 39 0 0 0
M  V30 BEGIN ATOM
M  V30 1 C 0.418392 -5.809554 2.722225 0
M  V30 2 C -0.380913 -4.797197 3.262385 0
M  V30 3 C -0.162033 -3.463242 2.984480 0
M  V30 4 C 0.886328 -3.095410 2.139058 0
M  V30 5 N 1.178461 -1.745190 1.803866 0
M  V30 6 C 0.740268 -1.123389 0.781394 0
M  V30 7 N 1.114384 0.234751 0.565869 0
M  V30 8 C 0.563164 0.650965 -0.509389 0
M  V30 9 N 0.716355 1.959476 -1.031472 0
M  V30 10 C 0.859148 3.111568 -0.242618 0
M  V30 11 C 0.853428 3.156288 1.124512 0
M  V30 12 C 0.997302 4.299042 1.894613 0
M  V30 13 C 1.162241 5.508349 1.209537 0
M  V30 14 C 1.169727 5.476500 -0.169359 0
M  V30 15 N 1.023006 4.318034 -0.836365 0
M  V30 16 C -0.254502 -0.385246 -1.151989 0
M  V30 17 C -1.035395 -0.473644 -2.285372 0
M  V30 18 C -1.669327 -1.678071 -2.553003 0
M  V30 19 C -1.526672 -2.764116 -1.710881 0
M  V30 20 C -0.748662 -2.700979 -0.567259 0
M  V30 21 C -0.132214 -1.488513 -0.330892 0
M  V30 22 N 1.678387 -4.063941 1.600880 0
M  V30 23 C 1.427903 -5.351896 1.899759 0
M  V30 24 H 0.270691 -6.861246 2.921985 0
M  V30 25 H -1.196926 -5.075795 3.919913 0
M  V30 26 H -0.787614 -2.689331 3.408810 0
M  V30 27 H 0.718707 2.052313 -2.085658 0
M  V30 28 H 0.729635 2.265914 1.680460 0
M  V30 29 H 0.984444 4.272260 2.973040 0
M  V30 30 H 1.277174 6.417913 1.796016 0
M  V30 31 H 1.297910 6.417460 -0.685468 0
M  V30 32 H -1.127114 0.394468 -2.925010 0
M  V30 33 H -2.292810 -1.767442 -3.447250 0
M  V30 34 H -2.014940 -3.728390 -1.895828 0
M  V30 35 H -0.626917 -3.541741 0.102428 0
M  V30 36 H 2.102650 -6.057841 1.431567 0
M  V30 END ATOM
M  V30 BEGIN BOND
M  V30 1 2 1 2
M  V30 2 1 2 3
M  V30 3 2 3 4
M  V30 4 1 4 5
M  V30 5 2 5 6 CFG=2
M  V30 6 1 6 7
M  V30 7 2 7 8
M  V30 8 1 8 9
M  V30 9 1 9 10
M  V30 10 2 10 11
M  V30 11 1 11 12
M  V30 12 2 12 13
M  V30 13 1 13 14
M  V30 14 2 14 15
M  V30 15 1 8 16
M  V30 16 2 16 17
M  V30 17 1 17 18
M  V30 18 2 18 19
M  V30 19 1 19 20
M  V30 20 2 20 21
M  V30 21 1 4 22
M  V30 22 2 22 23
M  V30 23 1 23 1
M  V30 24 1 21 6
M  V30 25 1 15 10
M  V30 26 1 21 16
M  V30 27 1 1 24
M  V30 28 1 2 25
M  V30 29 1 3 26
M  V30 30 1 9 27
M  V30 31 1 11 28
M  V30 32 1 12 29
M  V30 33 1 13 30
M  V30 34 1 14 31
M  V30 35 1 17 32
M  V30 36 1 18 33
M  V30 37 1 19 34
M  V30 38 1 20 35
M  V30 39 1 23 36
M  V30 END BOND
M  V30 END CTAB
M  END
>  <Dataset>  (260) 
ChEMBL_Kinases

>  <Ligand_Instance>  (260) 
nan

>  <PDB_ID>  (260) 
nan

>  <Standardized_SMILES>  (260) 
c1ccc(N=C2N=C(Nc3ccccn3)c3ccccc32)nc1

>  <Name>  (260) 
nan

>  <Pocket>  (260) 
nan

>  <ATP_Site>  (260) 
nan

>  <Peripheral>  (260) 
nan

>  <Num_H_Atoms_ProtBoundConf>  (260) 
nan

>  <Num_Resolved_Atoms>  (260) 
nan

>  <Num_Not_Resolved_Atoms>  (260) 
nan

$$$$
CHEMBL1586389
     RDKit          3D

  0  0  0  0  0  0  0  0  0  0999 V3000
M  V30 BEGIN CTAB
M  V30 COUNTS 56 58 0 0 0
M  V30 BEGIN ATOM
M  V30 1 O 0.726748 -0.985988 0.009829 0
M  V30 2 C 0.984292 -0.724873 1.209622 0
M  V30 3 C 2.409963 -0.761810 1.655922 0
M  V30 4 N 3.313152 -1.088382 0.640793 0
M  V30 5 C 3.588540 -0.272245 -0.446162 0
M  V30 6 C 4.347356 1.012054 -0.268349 0
M  V30 7 C 3.730883 2.022856 0.603834 0
M  V30 8 C 4.404541 2.284267 1.911143 0
M  V30 9 C 5.326127 1.235959 2.418452 0
M  V30 10 C 6.145428 0.509955 1.419596 0
M  V30 11 C 5.816032 0.783749 -0.006171 0
M  V30 12 N -0.081525 -0.408215 2.084510 0
M  V30 13 C -1.467018 -0.336473 1.808518 0
M  V30 14 C -2.312790 0.001315 2.842032 0
M  V30 15 C -3.674750 0.097313 2.684141 0
M  V30 16 C -4.271560 -0.143537 1.464336 0
M  V30 17 C -3.444851 -0.483448 0.414663 0
M  V30 18 S -4.139525 -0.808280 -1.178050 0
M  V30 19 O -5.465652 -0.064578 -1.234769 0
M  V30 20 O -3.267914 -0.310470 -2.274047 0
M  V30 21 N -4.505022 -2.467765 -1.309179 0
M  V30 22 C -5.463628 -2.962374 -0.375964 0
M  V30 23 C -5.339493 -4.472675 -0.364006 0
M  V30 24 O -5.422469 -5.036984 -1.614612 0
M  V30 25 C -5.625572 -4.176854 -2.659377 0
M  V30 26 C -4.754695 -2.938410 -2.635610 0
M  V30 27 C -2.085172 -0.566926 0.622304 0
M  V30 28 H 2.595033 0.132158 2.239965 0
M  V30 29 H 2.511357 -1.601603 2.442881 0
M  V30 30 H 3.577607 -2.090472 0.557332 0
M  V30 31 H 2.584219 0.064096 -0.882950 0
M  V30 32 H 4.009508 -0.856266 -1.326715 0
M  V30 33 H 4.344543 1.443781 -1.325303 0
M  V30 34 H 2.642628 1.837225 0.680217 0
M  V30 35 H 3.755357 3.038543 0.073466 0
M  V30 36 H 3.569605 2.373180 2.668351 0
M  V30 37 H 4.902519 3.274576 1.962339 0
M  V30 38 H 4.787944 0.526922 3.111026 0
M  V30 39 H 6.042612 1.736969 3.137439 0
M  V30 40 H 7.242349 0.704422 1.546826 0
M  V30 41 H 6.048189 -0.579806 1.606434 0
M  V30 42 H 6.143185 -0.055590 -0.650092 0
M  V30 43 H 6.362895 1.684685 -0.353923 0
M  V30 44 H 0.259426 -0.209955 3.049827 0
M  V30 45 H -1.904232 0.207113 3.843708 0
M  V30 46 H -4.274543 0.364041 3.527170 0
M  V30 47 H -5.342618 -0.075401 1.313902 0
M  V30 48 H -6.506594 -2.665596 -0.634506 0
M  V30 49 H -5.213112 -2.602375 0.628712 0
M  V30 50 H -6.050711 -4.948726 0.348264 0
M  V30 51 H -4.308837 -4.677129 0.050266 0
M  V30 52 H -5.329928 -4.716667 -3.601096 0
M  V30 53 H -6.687808 -3.895978 -2.795082 0
M  V30 54 H -3.775631 -3.167933 -3.098694 0
M  V30 55 H -5.316033 -2.153629 -3.188599 0
M  V30 56 H -1.516850 -0.833624 -0.231717 0
M  V30 END ATOM
M  V30 BEGIN BOND
M  V30 1 2 1 2
M  V30 2 1 2 3
M  V30 3 1 3 4
M  V30 4 1 4 5
M  V30 5 1 5 6
M  V30 6 1 6 7
M  V30 7 1 7 8
M  V30 8 1 8 9
M  V30 9 1 9 10
M  V30 10 1 10 11
M  V30 11 1 2 12
M  V30 12 1 12 13
M  V30 13 2 13 14
M  V30 14 1 14 15
M  V30 15 2 15 16
M  V30 16 1 16 17
M  V30 17 1 17 18
M  V30 18 2 18 19
M  V30 19 2 18 20
M  V30 20 1 18 21
M  V30 21 1 21 22
M  V30 22 1 22 23
M  V30 23 1 23 24
M  V30 24 1 24 25
M  V30 25 1 25 26
M  V30 26 2 17 27
M  V30 27 1 11 6
M  V30 28 1 27 13
M  V30 29 1 26 21
M  V30 30 1 3 28
M  V30 31 1 3 29
M  V30 32 1 4 30
M  V30 33 1 5 31
M  V30 34 1 5 32
M  V30 35 1 6 33
M  V30 36 1 7 34
M  V30 37 1 7 35
M  V30 38 1 8 36
M  V30 39 1 8 37
M  V30 40 1 9 38
M  V30 41 1 9 39
M  V30 42 1 10 40
M  V30 43 1 10 41
M  V30 44 1 11 42
M  V30 45 1 11 43
M  V30 46 1 12 44
M  V30 47 1 14 45
M  V30 48 1 15 46
M  V30 49 1 16 47
M  V30 50 1 22 48
M  V30 51 1 22 49
M  V30 52 1 23 50
M  V30 53 1 23 51
M  V30 54 1 25 52
M  V30 55 1 25 53
M  V30 56 1 26 54
M  V30 57 1 26 55
M  V30 58 1 27 56
M  V30 END BOND
M  V30 END CTAB
M  END
>  <Dataset>  (261) 
ChEMBL_Kinases

>  <Ligand_Instance>  (261) 
nan

>  <PDB_ID>  (261) 
nan

>  <Standardized_SMILES>  (261) 
O=C(CNCC1CCCCC1)Nc1cccc(S(=O)(=O)N2CCOCC2)c1

>  <Name>  (261) 
nan

>  <Pocket>  (261) 
nan

>  <ATP_Site>  (261) 
nan

>  <Peripheral>  (261) 
nan

>  <Num_H_Atoms_ProtBoundConf>  (261) 
nan

>  <Num_Resolved_Atoms>  (261) 
nan

>  <Num_Not_Resolved_Atoms>  (261) 
nan

$$$$
CHEMBL1584726
     RDKit          3D

  0  0  0  0  0  0  0  0  0  0999 V3000
M  V30 BEGIN CTAB
M  V30 COUNTS 49 52 0 0 0
M  V30 BEGIN ATOM
M  V30 1 C 0.778005 -3.612376 4.235901 0
M  V30 2 O 0.869077 -3.862289 2.846403 0
M  V30 3 C 1.615568 -3.024434 1.999962 0
M  V30 4 C 2.337966 -1.910035 2.352358 0
M  V30 5 C 3.011227 -1.196195 1.403302 0
M  V30 6 C 2.995186 -1.557920 0.063032 0
M  V30 7 C 3.780142 -0.625305 -0.808949 0
M  V30 8 N 2.875430 0.461554 -1.170962 0
M  V30 9 C 1.875447 0.304419 -2.151213 0
M  V30 10 O 1.650892 -0.743809 -2.822740 0
M  V30 11 C 0.898052 1.379307 -2.551775 0
M  V30 12 S -0.673289 0.903210 -1.786315 0
M  V30 13 C -0.582801 1.006582 0.003108 0
M  V30 14 N 0.538577 1.444903 0.623462 0
M  V30 15 C 0.612257 1.507952 1.983528 0
M  V30 16 N 1.531901 1.877114 2.897608 0
M  V30 17 N 1.069598 1.735359 4.123016 0
M  V30 18 C -0.201543 1.256549 4.117194 0
M  V30 19 C -0.546676 1.093125 2.786060 0
M  V30 20 C -1.663076 0.654118 2.085400 0
M  V30 21 O -2.780879 0.253398 2.806416 0
M  V30 22 N -1.647558 0.623809 0.728642 0
M  V30 23 C -2.773268 0.152511 0.071335 0
M  V30 24 C -2.521458 -0.955834 -0.757695 0
M  V30 25 C -3.439282 -1.670125 -1.544935 0
M  V30 26 C -4.746970 -1.168734 -1.450969 0
M  V30 27 C -5.082117 -0.082843 -0.660133 0
M  V30 28 C -4.090954 0.534594 0.067464 0
M  V30 29 Br -4.429131 2.056039 1.196261 0
M  V30 30 C 2.273170 -2.674031 -0.288112 0
M  V30 31 C 1.589091 -3.404452 0.658728 0
M  V30 32 H 0.898824 -2.515799 4.448739 0
M  V30 33 H -0.233166 -3.931873 4.598191 0
M  V30 34 H 1.527384 -4.162624 4.830386 0
M  V30 35 H 2.350613 -1.636002 3.381217 0
M  V30 36 H 3.563894 -0.322968 1.785464 0
M  V30 37 H 4.656820 -0.257914 -0.277095 0
M  V30 38 H 4.105993 -1.220646 -1.680632 0
M  V30 39 H 2.973715 1.383670 -0.696023 0
M  V30 40 H 0.797463 1.373005 -3.643986 0
M  V30 41 H 1.279529 2.372544 -2.190951 0
M  V30 42 H -0.866288 1.024101 4.960440 0
M  V30 43 H -2.698885 -0.492833 3.449260 0
M  V30 44 H -1.500331 -1.375567 -0.864761 0
M  V30 45 H -3.163884 -2.501276 -2.144954 0
M  V30 46 H -5.490859 -1.703652 -2.049967 0
M  V30 47 H -6.089056 0.277941 -0.607203 0
M  V30 48 H 2.303562 -2.911426 -1.342589 0
M  V30 49 H 1.054990 -4.262290 0.234679 0
M  V30 END ATOM
M  V30 BEGIN BOND
M  V30 1 1 1 2
M  V30 2 1 2 3
M  V30 3 2 3 4
M  V30 4 1 4 5
M  V30 5 2 5 6
M  V30 6 1 6 7
M  V30 7 1 7 8
M  V30 8 1 8 9
M  V30 9 2 9 10
M  V30 10 1 9 11
M  V30 11 1 11 12
M  V30 12 1 12 13
M  V30 13 2 13 14
M  V30 14 1 14 15
M  V30 15 2 15 16
M  V30 16 1 16 17
M  V30 17 2 17 18
M  V30 18 1 18 19
M  V30 19 2 19 20
M  V30 20 1 20 21
M  V30 21 1 20 22
M  V30 22 1 22 23
M  V30 23 2 23 24
M  V30 24 1 24 25
M  V30 25 2 25 26
M  V30 26 1 26 27
M  V30 27 2 27 28
M  V30 28 1 28 29
M  V30 29 1 6 30
M  V30 30 2 30 31
M  V30 31 1 31 3
M  V30 32 1 22 13
M  V30 33 1 28 23
M  V30 34 1 19 15
M  V30 35 1 1 32
M  V30 36 1 1 33
M  V30 37 1 1 34
M  V30 38 1 4 35
M  V30 39 1 5 36
M  V30 40 1 7 37
M  V30 41 1 7 38
M  V30 42 1 8 39
M  V30 43 1 11 40
M  V30 44 1 11 41
M  V30 45 1 18 42
M  V30 46 1 21 43
M  V30 47 1 24 44
M  V30 48 1 25 45
M  V30 49 1 26 46
M  V30 50 1 27 47
M  V30 51 1 30 48
M  V30 52 1 31 49
M  V30 END BOND
M  V30 END CTAB
M  END
>  <Dataset>  (262) 
ChEMBL_Kinases

>  <Ligand_Instance>  (262) 
nan

>  <PDB_ID>  (262) 
nan

>  <Standardized_SMILES>  (262) 
COc1ccc(CNC(=O)CSc2nc3nncc-3c(O)n2-c2ccccc2Br)cc1

>  <Name>  (262) 
nan

>  <Pocket>  (262) 
nan

>  <ATP_Site>  (262) 
nan

>  <Peripheral>  (262) 
nan

>  <Num_H_Atoms_ProtBoundConf>  (262) 
nan

>  <Num_Resolved_Atoms>  (262) 
nan

>  <Num_Not_Resolved_Atoms>  (262) 
nan

$$$$
CHEMBL1584727
     RDKit          3D

  0  0  0  0  0  0  0  0  0  0999 V3000
M  V30 BEGIN CTAB
M  V30 COUNTS 40 42 0 0 0
M  V30 BEGIN ATOM
M  V30 1 C 0.239155 -2.245338 3.224894 0
M  V30 2 C -0.277373 -1.628856 1.964879 0
M  V30 3 C 0.073752 -0.505779 1.279876 0
M  V30 4 C 1.029693 0.490442 1.713149 0
M  V30 5 O 0.947906 0.530772 2.949028 0
M  V30 6 C 1.961296 1.351773 1.037811 0
M  V30 7 C 2.564656 1.040373 -0.178362 0
M  V30 8 C 3.456021 1.919849 -0.718074 0
M  V30 9 C 3.852659 3.143428 -0.172171 0
M  V30 10 Cl 5.007826 4.242027 -0.871930 0
M  V30 11 C 3.202099 3.388893 1.046631 0
M  V30 12 N 3.446055 4.602694 1.674727 0 CHG=1 VAL=4
M  V30 13 O 3.981487 5.715597 1.393490 0
M  V30 14 O 4.057363 5.781187 1.261474 0 CHG=-1 VAL=1
M  V30 15 C 2.306020 2.567108 1.646305 0
M  V30 16 C -0.697228 -0.410332 0.111582 0
M  V30 17 C -0.829741 0.442766 -0.956566 0
M  V30 18 C -1.751366 0.224203 -1.989226 0
M  V30 19 C -2.570695 -0.898745 -1.944440 0
M  V30 20 C -2.369046 -1.692636 -0.844688 0
M  V30 21 N -1.495564 -1.510303 0.161864 0
M  V30 22 C -1.288907 -2.296067 1.273045 0
M  V30 23 C -2.036146 -3.533058 1.533960 0
M  V30 24 C -1.366830 -4.801368 1.099916 0
M  V30 25 C -2.257113 -5.966022 1.369131 0
M  V30 26 N -2.984378 -6.890555 1.576852 0
M  V30 27 H 1.050530 -2.945896 2.928767 0
M  V30 28 H 0.606813 -1.482933 3.933030 0
M  V30 29 H -0.579204 -2.805319 3.758380 0
M  V30 30 H 2.270929 0.098681 -0.614861 0
M  V30 31 H 3.930888 1.653499 -1.693418 0
M  V30 32 H 1.842308 2.842155 2.604578 0
M  V30 33 H -0.200103 1.291096 -0.987631 0
M  V30 34 H -1.840990 0.907142 -2.821929 0
M  V30 35 H -3.251655 -1.027966 -2.759994 0
M  V30 36 H -3.028176 -2.571353 -0.854683 0
M  V30 37 H -2.155448 -3.617055 2.676307 0
M  V30 38 H -3.101622 -3.495125 1.190590 0
M  V30 39 H -0.435349 -4.996946 1.669298 0
M  V30 40 H -1.107043 -4.760480 0.034241 0
M  V30 END ATOM
M  V30 BEGIN BOND
M  V30 1 1 1 2
M  V30 2 1 2 3
M  V30 3 1 3 4
M  V30 4 2 4 5
M  V30 5 1 4 6
M  V30 6 2 6 7
M  V30 7 1 7 8
M  V30 8 2 8 9
M  V30 9 1 9 10
M  V30 10 1 9 11
M  V30 11 1 11 12
M  V30 12 2 12 13
M  V30 13 1 12 14
M  V30 14 2 11 15
M  V30 15 2 3 16
M  V30 16 1 16 17
M  V30 17 2 17 18
M  V30 18 1 18 19
M  V30 19 2 19 20
M  V30 20 1 20 21
M  V30 21 1 21 22
M  V30 22 1 22 23
M  V30 23 1 23 24
M  V30 24 1 24 25
M  V30 25 3 25 26
M  V30 26 2 22 2
M  V30 27 1 15 6
M  V30 28 1 21 16
M  V30 29 1 1 27
M  V30 30 1 1 28
M  V30 31 1 1 29
M  V30 32 1 7 30
M  V30 33 1 8 31
M  V30 34 1 15 32
M  V30 35 1 17 33
M  V30 36 1 18 34
M  V30 37 1 19 35
M  V30 38 1 20 36
M  V30 39 1 23 37
M  V30 40 1 23 38
M  V30 41 1 24 39
M  V30 42 1 24 40
M  V30 END BOND
M  V30 END CTAB
M  END
>  <Dataset>  (263) 
ChEMBL_Kinases

>  <Ligand_Instance>  (263) 
nan

>  <PDB_ID>  (263) 
nan

>  <Standardized_SMILES>  (263) 
Cc1c(C(=O)c2ccc(Cl)c([N+](=O)[O-])c2)c2ccccn2c1CCC#N

>  <Name>  (263) 
nan

>  <Pocket>  (263) 
nan

>  <ATP_Site>  (263) 
nan

>  <Peripheral>  (263) 
nan

>  <Num_H_Atoms_ProtBoundConf>  (263) 
nan

>  <Num_Resolved_Atoms>  (263) 
nan

>  <Num_Not_Resolved_Atoms>  (263) 
nan

$$$$
CHEMBL1584745
     RDKit          3D

  0  0  0  0  0  0  0  0  0  0999 V3000
M  V30 BEGIN CTAB
M  V30 COUNTS 56 56 0 0 0
M  V30 BEGIN ATOM
M  V30 1 C 0.248392 -5.184255 0.482408 0
M  V30 2 C 1.066045 -4.715979 1.662367 0
M  V30 3 C 0.362641 -3.568411 2.386770 0
M  V30 4 C -0.981190 -4.031898 2.882246 0
M  V30 5 C 1.218272 -3.284954 3.619626 0
M  V30 6 C 0.278320 -2.370957 1.510805 0
M  V30 7 C 1.309072 -1.446887 1.529523 0
M  V30 8 C 1.215842 -0.338648 0.710536 0
M  V30 9 C 0.127767 -0.136385 -0.116751 0
M  V30 10 O 0.104518 0.990294 -0.904612 0
M  V30 11 C 1.095036 1.984708 -0.956848 0
M  V30 12 C 1.315089 2.653217 0.350217 0
M  V30 13 O 0.962898 2.711569 1.554344 0
M  V30 14 N 2.308341 3.669637 0.404030 0
M  V30 15 C 2.284702 4.117274 1.782556 0
M  V30 16 C 3.258340 4.316119 -0.497145 0
M  V30 17 C -0.935005 -1.046787 -0.165068 0
M  V30 18 C -2.101478 -0.855659 -1.031938 0
M  V30 19 C -3.036830 -2.051247 -0.807666 0
M  V30 20 C -1.708545 -0.915424 -2.501001 0
M  V30 21 C -2.841188 0.442565 -0.818657 0
M  V30 22 C -4.017558 0.459507 -1.805206 0
M  V30 23 C -0.794484 -2.139717 0.673264 0
M  V30 24 H 0.859063 -5.988597 -0.020673 0
M  V30 25 H -0.688834 -5.687801 0.764162 0
M  V30 26 H 0.082778 -4.370052 -0.242331 0
M  V30 27 H 2.046088 -4.399278 1.269346 0
M  V30 28 H 1.256513 -5.561936 2.342477 0
M  V30 29 H -0.831638 -4.661407 3.786780 0
M  V30 30 H -1.621609 -4.496838 2.132720 0
M  V30 31 H -1.499024 -3.109356 3.277375 0
M  V30 32 H 2.298011 -3.438170 3.402287 0
M  V30 33 H 1.083525 -2.211239 3.864714 0
M  V30 34 H 0.891567 -3.849329 4.499594 0
M  V30 35 H 2.144911 -1.629269 2.183600 0
M  V30 36 H 2.062534 0.321057 0.791814 0
M  V30 37 H 0.839239 2.725216 -1.745594 0
M  V30 38 H 2.059530 1.521458 -1.247774 0
M  V30 39 H 1.309363 4.532890 2.081820 0
M  V30 40 H 3.023427 4.934779 1.969565 0
M  V30 41 H 2.585207 3.276724 2.455126 0
M  V30 42 H 4.289632 4.159952 -0.109955 0
M  V30 43 H 3.098918 5.423720 -0.510518 0
M  V30 44 H 3.218745 3.906038 -1.513232 0
M  V30 45 H -2.461523 -2.952536 -1.101711 0
M  V30 46 H -3.891003 -2.012108 -1.515739 0
M  V30 47 H -3.375994 -2.146210 0.222813 0
M  V30 48 H -2.581862 -1.322355 -3.068289 0
M  V30 49 H -0.929359 -1.700001 -2.585441 0
M  V30 50 H -1.382441 0.064973 -2.899593 0
M  V30 51 H -3.291685 0.547661 0.169784 0
M  V30 52 H -2.193174 1.265500 -1.154254 0
M  V30 53 H -4.834221 -0.203519 -1.507690 0
M  V30 54 H -3.691702 0.399128 -2.845221 0
M  V30 55 H -4.437612 1.501550 -1.685272 0
M  V30 56 H -1.552861 -2.904195 0.718353 0
M  V30 END ATOM
M  V30 BEGIN BOND
M  V30 1 1 1 2
M  V30 2 1 2 3
M  V30 3 1 3 4
M  V30 4 1 3 5
M  V30 5 1 3 6
M  V30 6 2 6 7
M  V30 7 1 7 8
M  V30 8 2 8 9
M  V30 9 1 9 10
M  V30 10 1 10 11
M  V30 11 1 11 12
M  V30 12 2 12 13
M  V30 13 1 12 14
M  V30 14 1 14 15
M  V30 15 1 14 16
M  V30 16 1 9 17
M  V30 17 1 17 18
M  V30 18 1 18 19
M  V30 19 1 18 20
M  V30 20 1 18 21
M  V30 21 1 21 22
M  V30 22 2 17 23
M  V30 23 1 23 6
M  V30 24 1 1 24
M  V30 25 1 1 25
M  V30 26 1 1 26
M  V30 27 1 2 27
M  V30 28 1 2 28
M  V30 29 1 4 29
M  V30 30 1 4 30
M  V30 31 1 4 31
M  V30 32 1 5 32
M  V30 33 1 5 33
M  V30 34 1 5 34
M  V30 35 1 7 35
M  V30 36 1 8 36
M  V30 37 1 11 37
M  V30 38 1 11 38
M  V30 39 1 15 39
M  V30 40 1 15 40
M  V30 41 1 15 41
M  V30 42 1 16 42
M  V30 43 1 16 43
M  V30 44 1 16 44
M  V30 45 1 19 45
M  V30 46 1 19 46
M  V30 47 1 19 47
M  V30 48 1 20 48
M  V30 49 1 20 49
M  V30 50 1 20 50
M  V30 51 1 21 51
M  V30 52 1 21 52
M  V30 53 1 22 53
M  V30 54 1 22 54
M  V30 55 1 22 55
M  V30 56 1 23 56
M  V30 END BOND
M  V30 END CTAB
M  END
>  <Dataset>  (264) 
ChEMBL_Kinases

>  <Ligand_Instance>  (264) 
nan

>  <PDB_ID>  (264) 
nan

>  <Standardized_SMILES>  (264) 
CCC(C)(C)c1ccc(OCC(=O)N(C)C)c(C(C)(C)CC)c1

>  <Name>  (264) 
nan

>  <Pocket>  (264) 
nan

>  <ATP_Site>  (264) 
nan

>  <Peripheral>  (264) 
nan

>  <Num_H_Atoms_ProtBoundConf>  (264) 
nan

>  <Num_Resolved_Atoms>  (264) 
nan

>  <Num_Not_Resolved_Atoms>  (264) 
nan

$$$$
CHEMBL1584826
     RDKit          3D

  0  0  0  0  0  0  0  0  0  0999 V3000
M  V30 BEGIN CTAB
M  V30 COUNTS 41 43 0 0 0
M  V30 BEGIN ATOM
M  V30 1 O -2.668786 -1.152726 1.183777 0
M  V30 2 C -1.409873 -1.093135 1.211365 0
M  V30 3 C -0.822600 -2.266926 0.477003 0
M  V30 4 N 0.624272 -2.207224 0.501522 0
M  V30 5 C 1.295530 -2.824881 1.521195 0
M  V30 6 C 2.648872 -2.690946 1.413411 0
M  V30 7 C 2.819835 -1.949413 0.263085 0
M  V30 8 C 1.580441 -1.667866 -0.271554 0
M  V30 9 C 1.258522 -0.925381 -1.472017 0
M  V30 10 O 0.054750 -0.860385 -1.842815 0
M  V30 11 C 2.090104 -0.199830 -2.387624 0
M  V30 12 C 1.721680 -0.084694 -3.729083 0
M  V30 13 C 2.485746 0.617295 -4.670499 0
M  V30 14 C 3.642524 1.224285 -4.290745 0
M  V30 15 C 4.058792 1.146270 -2.979126 0
M  V30 16 C 3.262210 0.441028 -2.102624 0
M  V30 17 N -0.583590 -0.088871 1.829712 0
M  V30 18 C -1.440240 0.909187 2.456819 0
M  V30 19 C -2.038189 0.433902 3.730920 0
M  V30 20 C -1.351925 0.656613 4.906961 0
M  V30 21 C -1.999892 0.171752 6.041044 0
M  V30 22 C -3.215878 -0.480187 6.060476 0
M  V30 23 C -3.823364 -0.652609 4.817228 0
M  V30 24 N -3.227418 -0.197566 3.699867 0
M  V30 25 H -1.190035 -2.262489 -0.544213 0
M  V30 26 H -1.201013 -3.183006 0.998380 0
M  V30 27 H 0.871222 -3.386868 2.370841 0
M  V30 28 H 3.420253 -3.064224 2.057327 0
M  V30 29 H 3.801003 -1.679030 -0.097260 0
M  V30 30 H 0.808566 -0.549020 -4.086519 0
M  V30 31 H 2.128203 0.656928 -5.687915 0
M  V30 32 H 4.180523 1.745428 -5.061659 0
M  V30 33 H 4.978673 1.630210 -2.681499 0
M  V30 34 H 3.638704 0.427983 -1.095755 0
M  V30 35 H 0.450550 -0.206006 1.748913 0
M  V30 36 H -0.751734 1.769717 2.689464 0
M  V30 37 H -2.214154 1.259870 1.774183 0
M  V30 38 H -0.397018 1.157023 4.986316 0
M  V30 39 H -1.515719 0.311125 7.016229 0
M  V30 40 H -3.633759 -0.818218 6.999152 0
M  V30 41 H -4.782954 -1.163167 4.800797 0
M  V30 END ATOM
M  V30 BEGIN BOND
M  V30 1 2 1 2
M  V30 2 1 2 3
M  V30 3 1 3 4
M  V30 4 1 4 5
M  V30 5 2 5 6
M  V30 6 1 6 7
M  V30 7 2 7 8
M  V30 8 1 8 9
M  V30 9 2 9 10
M  V30 10 1 9 11
M  V30 11 2 11 12
M  V30 12 1 12 13
M  V30 13 2 13 14
M  V30 14 1 14 15
M  V30 15 2 15 16
M  V30 16 1 2 17
M  V30 17 1 17 18
M  V30 18 1 18 19
M  V30 19 2 19 20
M  V30 20 1 20 21
M  V30 21 2 21 22
M  V30 22 1 22 23
M  V30 23 2 23 24
M  V30 24 1 8 4
M  V30 25 1 16 11
M  V30 26 1 24 19
M  V30 27 1 3 25
M  V30 28 1 3 26
M  V30 29 1 5 27
M  V30 30 1 6 28
M  V30 31 1 7 29
M  V30 32 1 12 30
M  V30 33 1 13 31
M  V30 34 1 14 32
M  V30 35 1 15 33
M  V30 36 1 16 34
M  V30 37 1 17 35
M  V30 38 1 18 36
M  V30 39 1 18 37
M  V30 40 1 20 38
M  V30 41 1 21 39
M  V30 42 1 22 40
M  V30 43 1 23 41
M  V30 END BOND
M  V30 END CTAB
M  END
>  <Dataset>  (265) 
ChEMBL_Kinases

>  <Ligand_Instance>  (265) 
nan

>  <PDB_ID>  (265) 
nan

>  <Standardized_SMILES>  (265) 
O=C(Cn1cccc1C(=O)c1ccccc1)NCc1ccccn1

>  <Name>  (265) 
nan

>  <Pocket>  (265) 
nan

>  <ATP_Site>  (265) 
nan

>  <Peripheral>  (265) 
nan

>  <Num_H_Atoms_ProtBoundConf>  (265) 
nan

>  <Num_Resolved_Atoms>  (265) 
nan

>  <Num_Not_Resolved_Atoms>  (265) 
nan

$$$$
CHEMBL1585005
     RDKit          3D

  0  0  0  0  0  0  0  0  0  0999 V3000
M  V30 BEGIN CTAB
M  V30 COUNTS 43 46 0 0 0
M  V30 BEGIN ATOM
M  V30 1 O 2.286573 -2.044951 2.427450 0
M  V30 2 C 1.603040 -1.712725 1.397754 0
M  V30 3 C 0.848823 -2.907380 1.005113 0
M  V30 4 N 0.022026 -2.768582 -0.148933 0
M  V30 5 C 0.684568 -2.640706 -1.399024 0
M  V30 6 C 1.670669 -3.809696 -1.547499 0
M  V30 7 S 0.724702 -5.315506 -1.138698 0
M  V30 8 C -0.997203 -4.919156 -0.770134 0
M  V30 9 C -1.158659 -3.547426 -0.166862 0
M  V30 10 N 2.097473 -0.395648 1.401597 0
M  V30 11 C 3.059525 0.045847 2.389028 0
M  V30 12 C 2.742311 1.402560 2.929624 0
M  V30 13 C 1.371579 1.854466 2.509780 0
M  V30 14 N 0.443921 2.617016 3.134472 0
M  V30 15 C -0.662279 2.780881 2.395712 0
M  V30 16 C -1.860621 3.434715 2.552117 0
M  V30 17 C -2.803588 3.373332 1.528950 0
M  V30 18 C -2.549557 2.675154 0.381361 0
M  V30 19 Br -3.875277 2.621292 -0.988509 0
M  V30 20 C -1.365162 1.995222 0.159638 0
M  V30 21 C -0.475287 2.105984 1.231274 0
M  V30 22 C 0.784131 1.529976 1.297675 0
M  V30 23 C 1.712708 0.660091 0.480506 0
M  V30 24 H 1.523668 -3.793973 0.948855 0
M  V30 25 H 0.142274 -3.134273 1.858973 0
M  V30 26 H -0.087570 -2.838855 -2.200451 0
M  V30 27 H 1.153682 -1.690646 -1.632977 0
M  V30 28 H 2.006002 -3.909557 -2.585995 0
M  V30 29 H 2.528669 -3.684905 -0.864758 0
M  V30 30 H -1.558175 -4.954627 -1.735557 0
M  V30 31 H -1.438453 -5.672686 -0.104263 0
M  V30 32 H -1.551158 -3.620375 0.862682 0
M  V30 33 H -1.922457 -2.962316 -0.758540 0
M  V30 34 H 4.044943 0.120898 1.842796 0
M  V30 35 H 3.189402 -0.654714 3.237979 0
M  V30 36 H 2.771772 1.361772 4.057908 0
M  V30 37 H 3.499079 2.132781 2.630534 0
M  V30 38 H 0.518962 3.056856 4.080487 0
M  V30 39 H -2.041522 3.981361 3.463845 0
M  V30 40 H -3.751113 3.888243 1.648032 0
M  V30 41 H -1.139693 1.440804 -0.727795 0
M  V30 42 H 2.634503 1.202214 0.196976 0
M  V30 43 H 1.147736 0.317858 -0.392334 0
M  V30 END ATOM
M  V30 BEGIN BOND
M  V30 1 2 1 2
M  V30 2 1 2 3
M  V30 3 1 3 4
M  V30 4 1 4 5
M  V30 5 1 5 6
M  V30 6 1 6 7
M  V30 7 1 7 8
M  V30 8 1 8 9
M  V30 9 1 2 10
M  V30 10 1 10 11
M  V30 11 1 11 12
M  V30 12 1 12 13
M  V30 13 1 13 14
M  V30 14 1 14 15
M  V30 15 2 15 16
M  V30 16 1 16 17
M  V30 17 2 17 18
M  V30 18 1 18 19
M  V30 19 1 18 20
M  V30 20 2 20 21
M  V30 21 1 21 22
M  V30 22 1 22 23
M  V30 23 1 9 4
M  V30 24 1 23 10
M  V30 25 2 22 13
M  V30 26 1 21 15
M  V30 27 1 3 24
M  V30 28 1 3 25
M  V30 29 1 5 26
M  V30 30 1 5 27
M  V30 31 1 6 28
M  V30 32 1 6 29
M  V30 33 1 8 30
M  V30 34 1 8 31
M  V30 35 1 9 32
M  V30 36 1 9 33
M  V30 37 1 11 34
M  V30 38 1 11 35
M  V30 39 1 12 36
M  V30 40 1 12 37
M  V30 41 1 14 38
M  V30 42 1 16 39
M  V30 43 1 17 40
M  V30 44 1 20 41
M  V30 45 1 23 42
M  V30 46 1 23 43
M  V30 END BOND
M  V30 END CTAB
M  END
>  <Dataset>  (266) 
ChEMBL_Kinases

>  <Ligand_Instance>  (266) 
nan

>  <PDB_ID>  (266) 
nan

>  <Standardized_SMILES>  (266) 
O=C(CN1CCSCC1)N1CCc2[nH]c3ccc(Br)cc3c2C1

>  <Name>  (266) 
nan

>  <Pocket>  (266) 
nan

>  <ATP_Site>  (266) 
nan

>  <Peripheral>  (266) 
nan

>  <Num_H_Atoms_ProtBoundConf>  (266) 
nan

>  <Num_Resolved_Atoms>  (266) 
nan

>  <Num_Not_Resolved_Atoms>  (266) 
nan

$$$$
CHEMBL1585117
     RDKit          3D

  0  0  0  0  0  0  0  0  0  0999 V3000
M  V30 BEGIN CTAB
M  V30 COUNTS 39 41 0 0 0
M  V30 BEGIN ATOM
M  V30 1 C -1.049523 -4.684542 2.972664 0
M  V30 2 C 0.317134 -4.350513 2.463830 0
M  V30 3 O 1.216952 -5.019579 3.000862 0
M  V30 4 C 0.612951 -3.341989 1.437781 0
M  V30 5 C 0.695152 -3.452381 0.063300 0
M  V30 6 C 0.471498 -4.729281 -0.666602 0
M  V30 7 N 0.996616 -2.269301 -0.499419 0
M  V30 8 C 1.120958 -1.346619 0.499136 0
M  V30 9 C 1.440634 0.095348 0.470210 0
M  V30 10 O 2.608158 0.248558 0.836115 0
M  V30 11 N 0.435121 1.019715 0.057675 0
M  V30 12 C -0.909537 0.670950 -0.356820 0
M  V30 13 C -1.687276 1.833800 0.265019 0
M  V30 14 C -0.701134 2.930599 0.111306 0
M  V30 15 C -0.769203 4.330887 0.063273 0
M  V30 16 C 0.336157 5.142096 -0.097586 0
M  V30 17 C 1.590303 4.533795 -0.219307 0
M  V30 18 C 1.750930 3.145142 -0.182789 0
M  V30 19 C 0.577939 2.443536 -0.018267 0
M  V30 20 C 0.884266 -1.996745 1.717928 0
M  V30 21 C 0.911186 -1.387377 3.068682 0
M  V30 22 H -1.136678 -5.797630 2.951292 0
M  V30 23 H -1.844869 -4.235015 2.341550 0
M  V30 24 H -1.147678 -4.354342 4.041482 0
M  V30 25 H -0.571317 -5.064946 -0.447140 0
M  V30 26 H 0.515765 -4.539909 -1.773489 0
M  V30 27 H 1.196352 -5.499407 -0.381983 0
M  V30 28 H 1.129743 -2.011544 -1.490139 0
M  V30 29 H -1.040755 0.606291 -1.442630 0
M  V30 30 H -1.269692 -0.257858 0.135302 0
M  V30 31 H -2.627618 2.002173 -0.302602 0
M  V30 32 H -1.939297 1.610472 1.322525 0
M  V30 33 H -1.727521 4.818287 0.151792 0
M  V30 34 H 0.236242 6.226273 -0.126514 0
M  V30 35 H 2.454857 5.165992 -0.343132 0
M  V30 36 H 2.709330 2.660756 -0.281041 0
M  V30 37 H 1.662544 -0.587844 3.190044 0
M  V30 38 H -0.063045 -1.012902 3.421032 0
M  V30 39 H 1.201319 -2.185750 3.792773 0
M  V30 END ATOM
M  V30 BEGIN BOND
M  V30 1 1 1 2
M  V30 2 2 2 3
M  V30 3 1 2 4
M  V30 4 2 4 5
M  V30 5 1 5 6
M  V30 6 1 5 7
M  V30 7 1 7 8
M  V30 8 1 8 9
M  V30 9 2 9 10
M  V30 10 1 9 11
M  V30 11 1 11 12
M  V30 12 1 12 13
M  V30 13 1 13 14
M  V30 14 2 14 15
M  V30 15 1 15 16
M  V30 16 2 16 17
M  V30 17 1 17 18
M  V30 18 2 18 19
M  V30 19 2 8 20
M  V30 20 1 20 21
M  V30 21 1 20 4
M  V30 22 1 19 11
M  V30 23 1 19 14
M  V30 24 1 1 22
M  V30 25 1 1 23
M  V30 26 1 1 24
M  V30 27 1 6 25
M  V30 28 1 6 26
M  V30 29 1 6 27
M  V30 30 1 7 28
M  V30 31 1 12 29
M  V30 32 1 12 30
M  V30 33 1 13 31
M  V30 34 1 13 32
M  V30 35 1 15 33
M  V30 36 1 16 34
M  V30 37 1 17 35
M  V30 38 1 18 36
M  V30 39 1 21 37
M  V30 40 1 21 38
M  V30 41 1 21 39
M  V30 END BOND
M  V30 END CTAB
M  END
>  <Dataset>  (267) 
ChEMBL_Kinases

>  <Ligand_Instance>  (267) 
nan

>  <PDB_ID>  (267) 
nan

>  <Standardized_SMILES>  (267) 
CC(=O)c1c(C)[nH]c(C(=O)N2CCc3ccccc32)c1C

>  <Name>  (267) 
nan

>  <Pocket>  (267) 
nan

>  <ATP_Site>  (267) 
nan

>  <Peripheral>  (267) 
nan

>  <Num_H_Atoms_ProtBoundConf>  (267) 
nan

>  <Num_Resolved_Atoms>  (267) 
nan

>  <Num_Not_Resolved_Atoms>  (267) 
nan

$$$$
CHEMBL1585252
     RDKit          3D

  0  0  0  0  0  0  0  0  0  0999 V3000
M  V30 BEGIN CTAB
M  V30 COUNTS 31 32 0 0 0
M  V30 BEGIN ATOM
M  V30 1 C 0.784742 -3.159576 5.174809 0
M  V30 2 C 0.622884 -3.093243 3.697647 0
M  V30 3 O 0.436341 -4.132263 3.033785 0
M  V30 4 C 0.683944 -1.797939 3.025549 0
M  V30 5 N 0.877107 -0.556864 3.559278 0
M  V30 6 N 0.862210 0.344999 2.589127 0
M  V30 7 N 0.664575 -0.258374 1.422437 0
M  V30 8 C 0.569402 0.266609 0.101025 0
M  V30 9 C 1.625950 0.505651 -0.771749 0
M  V30 10 C 1.378937 1.020050 -2.028599 0
M  V30 11 C 0.078084 1.290644 -2.401141 0
M  V30 12 N -0.044164 1.816437 -3.717922 0 CHG=1 VAL=4
M  V30 13 O -1.056558 2.162693 -4.355389 0
M  V30 14 O 0.896045 2.100745 -4.677950 0 CHG=-1 VAL=1
M  V30 15 C -1.012158 1.075349 -1.580893 0
M  V30 16 C -0.726103 0.560927 -0.333613 0
M  V30 17 C -1.907160 0.327016 0.556682 0
M  V30 18 C 0.552201 -1.578610 1.669029 0
M  V30 19 C 0.324732 -2.663922 0.690172 0
M  V30 20 H 0.886717 -2.136528 5.589748 0
M  V30 21 H 1.736569 -3.678320 5.462202 0
M  V30 22 H -0.078478 -3.657535 5.660840 0
M  V30 23 H 2.598417 0.256011 -0.371937 0
M  V30 24 H 2.233818 1.179060 -2.646649 0
M  V30 25 H -1.998489 1.302056 -1.918524 0
M  V30 26 H -2.475935 -0.510889 0.095238 0
M  V30 27 H -1.645085 0.159980 1.602307 0
M  V30 28 H -2.579790 1.205689 0.524540 0
M  V30 29 H -0.513810 -3.341844 0.966425 0
M  V30 30 H 1.259341 -3.264613 0.607902 0
M  V30 31 H 0.120351 -2.267709 -0.308914 0
M  V30 END ATOM
M  V30 BEGIN BOND
M  V30 1 1 1 2
M  V30 2 2 2 3
M  V30 3 1 2 4
M  V30 4 1 4 5
M  V30 5 2 5 6
M  V30 6 1 6 7
M  V30 7 1 7 8
M  V30 8 2 8 9
M  V30 9 1 9 10
M  V30 10 2 10 11
M  V30 11 1 11 12
M  V30 12 2 12 13
M  V30 13 1 12 14
M  V30 14 1 11 15
M  V30 15 2 15 16
M  V30 16 1 16 17
M  V30 17 1 7 18
M  V30 18 1 18 19
M  V30 19 2 18 4
M  V30 20 1 16 8
M  V30 21 1 1 20
M  V30 22 1 1 21
M  V30 23 1 1 22
M  V30 24 1 9 23
M  V30 25 1 10 24
M  V30 26 1 15 25
M  V30 27 1 17 26
M  V30 28 1 17 27
M  V30 29 1 17 28
M  V30 30 1 19 29
M  V30 31 1 19 30
M  V30 32 1 19 31
M  V30 END BOND
M  V30 END CTAB
M  END
>  <Dataset>  (268) 
ChEMBL_Kinases

>  <Ligand_Instance>  (268) 
nan

>  <PDB_ID>  (268) 
nan

>  <Standardized_SMILES>  (268) 
CC(=O)c1nnn(-c2ccc([N+](=O)[O-])cc2C)c1C

>  <Name>  (268) 
nan

>  <Pocket>  (268) 
nan

>  <ATP_Site>  (268) 
nan

>  <Peripheral>  (268) 
nan

>  <Num_H_Atoms_ProtBoundConf>  (268) 
nan

>  <Num_Resolved_Atoms>  (268) 
nan

>  <Num_Not_Resolved_Atoms>  (268) 
nan

$$$$
CHEMBL1585289
     RDKit          3D

  0  0  0  0  0  0  0  0  0  0999 V3000
M  V30 BEGIN CTAB
M  V30 COUNTS 31 32 0 0 0
M  V30 BEGIN ATOM
M  V30 1 C -1.218147 -2.197099 3.392660 0
M  V30 2 C -1.675064 -2.207196 2.145342 0
M  V30 3 C -1.236396 -1.435480 0.977655 0
M  V30 4 C -0.092615 -0.517274 1.294870 0
M  V30 5 C 1.141245 -1.221517 1.790546 0
M  V30 6 C 1.496353 -2.317859 0.801548 0
M  V30 7 C 1.612213 -1.752894 -0.588821 0
M  V30 8 C 1.582951 -0.254693 -0.549627 0
M  V30 9 C 0.336249 0.304843 0.107683 0
M  V30 10 N -0.682663 0.453092 -0.899405 0
M  V30 11 C -0.740591 1.836874 -1.271855 0
M  V30 12 O -1.461087 2.142643 -2.253144 0
M  V30 13 N 0.091300 2.584746 -0.376624 0
M  V30 14 C 0.668196 1.683892 0.550797 0
M  V30 15 O 1.325057 2.044602 1.540628 0
M  V30 16 H -0.997562 -2.335849 4.440611 0
M  V30 17 H -1.700488 -2.859946 4.100156 0
M  V30 18 H -2.511541 -2.862736 1.841414 0
M  V30 19 H -0.988741 -2.128108 0.146965 0
M  V30 20 H -2.095132 -0.836736 0.624309 0
M  V30 21 H -0.440341 0.147202 2.118276 0
M  V30 22 H 1.086145 -1.642155 2.788320 0
M  V30 23 H 1.952955 -0.447892 1.792853 0
M  V30 24 H 2.421527 -2.804523 1.166563 0
M  V30 25 H 0.678423 -3.080163 0.881873 0
M  V30 26 H 0.909061 -2.193858 -1.319794 0
M  V30 27 H 2.629269 -2.034599 -0.954786 0
M  V30 28 H 1.576045 0.108638 -1.601498 0
M  V30 29 H 2.509694 0.125346 -0.087026 0
M  V30 30 H -1.175886 -0.428088 -1.168522 0
M  V30 31 H 0.154208 3.602474 -0.516504 0
M  V30 END ATOM
M  V30 BEGIN BOND
M  V30 1 2 1 2
M  V30 2 1 2 3
M  V30 3 1 3 4
M  V30 4 1 4 5
M  V30 5 1 5 6
M  V30 6 1 6 7
M  V30 7 1 7 8
M  V30 8 1 8 9
M  V30 9 1 9 10
M  V30 10 1 10 11
M  V30 11 2 11 12
M  V30 12 1 11 13
M  V30 13 1 13 14
M  V30 14 2 14 15
M  V30 15 1 9 4
M  V30 16 1 14 9
M  V30 17 1 1 16
M  V30 18 1 1 17
M  V30 19 1 2 18
M  V30 20 1 3 19
M  V30 21 1 3 20
M  V30 22 1 4 21
M  V30 23 1 5 22
M  V30 24 1 5 23
M  V30 25 1 6 24
M  V30 26 1 6 25
M  V30 27 1 7 26
M  V30 28 1 7 27
M  V30 29 1 8 28
M  V30 30 1 8 29
M  V30 31 1 10 30
M  V30 32 1 13 31
M  V30 END BOND
M  V30 END CTAB
M  END
>  <Dataset>  (269) 
ChEMBL_Kinases

>  <Ligand_Instance>  (269) 
nan

>  <PDB_ID>  (269) 
nan

>  <Standardized_SMILES>  (269) 
C=CCC1CCCCC12NC(=O)NC2=O

>  <Name>  (269) 
nan

>  <Pocket>  (269) 
nan

>  <ATP_Site>  (269) 
nan

>  <Peripheral>  (269) 
nan

>  <Num_H_Atoms_ProtBoundConf>  (269) 
nan

>  <Num_Resolved_Atoms>  (269) 
nan

>  <Num_Not_Resolved_Atoms>  (269) 
nan

$$$$
CHEMBL1586339
     RDKit          3D

  0  0  0  0  0  0  0  0  0  0999 V3000
M  V30 BEGIN CTAB
M  V30 COUNTS 32 33 0 0 0
M  V30 BEGIN ATOM
M  V30 1 C -1.401613 -4.513635 4.697055 0
M  V30 2 O -0.570069 -3.418443 5.036219 0
M  V30 3 C -0.327371 -2.423240 4.100741 0
M  V30 4 C 0.490160 -1.386698 4.495747 0
M  V30 5 C 0.795869 -0.348919 3.647154 0
M  V30 6 C 0.313473 -0.271162 2.357528 0
M  V30 7 N 0.627574 0.811398 1.509598 0
M  V30 8 C 0.622435 0.940844 0.097160 0
M  V30 9 C 0.714327 -0.093108 -0.809106 0
M  V30 10 C 0.690747 0.029970 -2.179707 0
M  V30 11 C 0.564224 1.302650 -2.694246 0
M  V30 12 O 0.530006 1.536540 -4.062608 0
M  V30 13 C 0.617079 0.541867 -5.032809 0
M  V30 14 C 0.468610 2.376538 -1.833978 0
M  V30 15 C 0.497840 2.191781 -0.469714 0
M  V30 16 C -0.499032 -1.328507 2.008054 0
M  V30 17 C -0.836110 -2.392020 2.819401 0
M  V30 18 H -1.132774 -5.375086 5.365876 0
M  V30 19 H -2.482420 -4.283515 4.746343 0
M  V30 20 H -1.132070 -4.844368 3.671705 0
M  V30 21 H 0.912725 -1.370548 5.496175 0
M  V30 22 H 1.449156 0.444527 4.016350 0
M  V30 23 H 0.919305 1.680510 2.037093 0
M  V30 24 H 0.825781 -1.100133 -0.451278 0
M  V30 25 H 0.766189 -0.814922 -2.834233 0
M  V30 26 H 0.193051 0.935598 -5.983118 0
M  V30 27 H 0.030488 -0.350822 -4.701890 0
M  V30 28 H 1.686682 0.286537 -5.195194 0
M  V30 29 H 0.366228 3.414251 -2.184604 0
M  V30 30 H 0.420092 3.061819 0.190022 0
M  V30 31 H -0.950228 -1.384167 1.034129 0
M  V30 32 H -1.472467 -3.199833 2.513509 0
M  V30 END ATOM
M  V30 BEGIN BOND
M  V30 1 1 1 2
M  V30 2 1 2 3
M  V30 3 2 3 4
M  V30 4 1 4 5
M  V30 5 2 5 6
M  V30 6 1 6 7
M  V30 7 1 7 8
M  V30 8 2 8 9
M  V30 9 1 9 10
M  V30 10 2 10 11
M  V30 11 1 11 12
M  V30 12 1 12 13
M  V30 13 1 11 14
M  V30 14 2 14 15
M  V30 15 1 6 16
M  V30 16 2 16 17
M  V30 17 1 17 3
M  V30 18 1 15 8
M  V30 19 1 1 18
M  V30 20 1 1 19
M  V30 21 1 1 20
M  V30 22 1 4 21
M  V30 23 1 5 22
M  V30 24 1 7 23
M  V30 25 1 9 24
M  V30 26 1 10 25
M  V30 27 1 13 26
M  V30 28 1 13 27
M  V30 29 1 13 28
M  V30 30 1 14 29
M  V30 31 1 15 30
M  V30 32 1 16 31
M  V30 33 1 17 32
M  V30 END BOND
M  V30 END CTAB
M  END
>  <Dataset>  (270) 
ChEMBL_Kinases

>  <Ligand_Instance>  (270) 
nan

>  <PDB_ID>  (270) 
nan

>  <Standardized_SMILES>  (270) 
COc1ccc(Nc2ccc(OC)cc2)cc1

>  <Name>  (270) 
nan

>  <Pocket>  (270) 
nan

>  <ATP_Site>  (270) 
nan

>  <Peripheral>  (270) 
nan

>  <Num_H_Atoms_ProtBoundConf>  (270) 
nan

>  <Num_Resolved_Atoms>  (270) 
nan

>  <Num_Not_Resolved_Atoms>  (270) 
nan

$$$$
CHEMBL1585370
     RDKit          3D

  0  0  0  0  0  0  0  0  0  0999 V3000
M  V30 BEGIN CTAB
M  V30 COUNTS 33 36 0 0 0
M  V30 BEGIN ATOM
M  V30 1 O -3.539948 -1.906306 3.678497 0
M  V30 2 C -2.394076 -1.980913 2.908776 0
M  V30 3 N -1.161911 -2.081412 3.466324 0
M  V30 4 C -0.047145 -2.154058 2.728144 0
M  V30 5 C 1.329072 -2.264335 3.281751 0
M  V30 6 S 1.959684 -0.578795 3.501201 0
M  V30 7 C 2.120341 0.117607 1.811294 0
M  V30 8 N 2.002659 -0.032342 0.703968 0
M  V30 9 C 2.245538 0.779004 -0.301924 0
M  V30 10 C 2.081508 0.542632 -1.673196 0
M  V30 11 C 2.395115 1.525662 -2.553383 0
M  V30 12 C 2.881409 2.793879 -2.228938 0
M  V30 13 C 3.038944 3.014243 -0.867991 0
M  V30 14 C 2.713541 1.996197 0.032176 0
M  V30 15 S 2.777742 1.898755 1.813053 0
M  V30 16 N -0.201043 -2.122935 1.395653 0
M  V30 17 C -1.383563 -2.025482 0.793544 0
M  V30 18 C -1.410965 -2.002816 -0.574421 0
M  V30 19 C -2.589639 -1.903697 -1.280627 0
M  V30 20 C -3.748582 -1.828060 -0.526090 0
M  V30 21 C -3.735259 -1.850002 0.864003 0
M  V30 22 C -2.548127 -1.949221 1.537640 0
M  V30 23 H -4.334481 -2.460623 3.369835 0
M  V30 24 H 1.336518 -2.804886 4.246983 0
M  V30 25 H 1.989595 -2.747165 2.524359 0
M  V30 26 H 1.714634 -0.382555 -2.125298 0
M  V30 27 H 2.281723 1.382642 -3.637780 0
M  V30 28 H 3.134677 3.583971 -2.913378 0
M  V30 29 H 3.408054 3.952645 -0.461923 0
M  V30 30 H -0.483774 -2.063767 -1.131002 0
M  V30 31 H -2.562077 -1.889451 -2.356520 0
M  V30 32 H -4.702404 -1.748433 -1.043774 0
M  V30 33 H -4.626780 -1.792052 1.454152 0
M  V30 END ATOM
M  V30 BEGIN BOND
M  V30 1 1 1 2
M  V30 2 2 2 3
M  V30 3 1 3 4
M  V30 4 1 4 5
M  V30 5 1 5 6
M  V30 6 1 6 7
M  V30 7 2 7 8
M  V30 8 1 8 9
M  V30 9 2 9 10
M  V30 10 1 10 11
M  V30 11 2 11 12
M  V30 12 1 12 13
M  V30 13 2 13 14
M  V30 14 1 14 15
M  V30 15 2 4 16
M  V30 16 1 16 17
M  V30 17 2 17 18
M  V30 18 1 18 19
M  V30 19 2 19 20
M  V30 20 1 20 21
M  V30 21 2 21 22
M  V30 22 1 22 2
M  V30 23 1 15 7
M  V30 24 1 22 17
M  V30 25 1 14 9
M  V30 26 1 1 23
M  V30 27 1 5 24
M  V30 28 1 5 25
M  V30 29 1 10 26
M  V30 30 1 11 27
M  V30 31 1 12 28
M  V30 32 1 13 29
M  V30 33 1 18 30
M  V30 34 1 19 31
M  V30 35 1 20 32
M  V30 36 1 21 33
M  V30 END BOND
M  V30 END CTAB
M  END
>  <Dataset>  (271) 
ChEMBL_Kinases

>  <Ligand_Instance>  (271) 
nan

>  <PDB_ID>  (271) 
nan

>  <Standardized_SMILES>  (271) 
Oc1nc(CSc2nc3ccccc3s2)nc2ccccc12

>  <Name>  (271) 
nan

>  <Pocket>  (271) 
nan

>  <ATP_Site>  (271) 
nan

>  <Peripheral>  (271) 
nan

>  <Num_H_Atoms_ProtBoundConf>  (271) 
nan

>  <Num_Resolved_Atoms>  (271) 
nan

>  <Num_Not_Resolved_Atoms>  (271) 
nan

$$$$
CHEMBL1585433
     RDKit          3D

  0  0  0  0  0  0  0  0  0  0999 V3000
M  V30 BEGIN CTAB
M  V30 COUNTS 39 39 0 0 0
M  V30 BEGIN ATOM
M  V30 1 C -0.039208 -4.047400 3.279213 0
M  V30 2 C 1.412080 -3.865714 2.907861 0
M  V30 3 O 1.508345 -2.862717 1.934973 0
M  V30 4 C 1.064454 -1.585077 2.217785 0
M  V30 5 O 0.613328 -1.524409 3.386638 0
M  V30 6 C 1.142716 -0.504429 1.241199 0
M  V30 7 C 1.678823 -0.743757 -0.035155 0
M  V30 8 N 2.191175 -1.991034 -0.559180 0
M  V30 9 C 1.177744 -2.733547 -1.209019 0
M  V30 10 O -0.005374 -2.263152 -1.265523 0
M  V30 11 O 1.308564 -3.950439 -1.815082 0
M  V30 12 C 0.209811 -4.622817 -2.451608 0
M  V30 13 S 1.576613 0.821851 -0.851251 0
M  V30 14 C 0.853483 1.694060 0.486623 0
M  V30 15 C 0.493880 3.101999 0.473112 0
M  V30 16 O 1.243190 4.087580 0.726927 0
M  V30 17 N -0.830164 3.509344 0.148105 0
M  V30 18 C -1.180089 4.918253 0.134666 0
M  V30 19 C -1.909180 2.577546 -0.187046 0
M  V30 20 C 0.724428 0.757327 1.487685 0
M  V30 21 C 0.127412 1.186352 2.805021 0
M  V30 22 H -0.326485 -5.118064 3.345002 0
M  V30 23 H -0.656498 -3.507909 2.540148 0
M  V30 24 H -0.182247 -3.533408 4.271379 0
M  V30 25 H 2.022455 -3.628498 3.819362 0
M  V30 26 H 1.785427 -4.838992 2.534507 0
M  V30 27 H 3.127869 -2.397510 -0.533134 0
M  V30 28 H -0.585991 -4.877467 -1.722410 0
M  V30 29 H 0.531685 -5.539260 -2.943812 0
M  V30 30 H -0.285835 -3.915522 -3.178790 0
M  V30 31 H -0.315281 5.506422 -0.282805 0
M  V30 32 H -1.381951 5.332340 1.141535 0
M  V30 33 H -2.008149 5.120518 -0.588617 0
M  V30 34 H -2.361678 2.162716 0.743989 0
M  V30 35 H -1.428166 1.715183 -0.721062 0
M  V30 36 H -2.627828 3.011623 -0.886502 0
M  V30 37 H 0.694146 0.780268 3.666240 0
M  V30 38 H -0.928414 0.851349 2.770862 0
M  V30 39 H 0.151874 2.275584 2.914278 0
M  V30 END ATOM
M  V30 BEGIN BOND
M  V30 1 1 1 2
M  V30 2 1 2 3
M  V30 3 1 3 4
M  V30 4 2 4 5
M  V30 5 1 4 6
M  V30 6 2 6 7
M  V30 7 1 7 8
M  V30 8 1 8 9
M  V30 9 2 9 10
M  V30 10 1 9 11
M  V30 11 1 11 12
M  V30 12 1 7 13
M  V30 13 1 13 14
M  V30 14 1 14 15
M  V30 15 2 15 16
M  V30 16 1 15 17
M  V30 17 1 17 18
M  V30 18 1 17 19
M  V30 19 2 14 20
M  V30 20 1 20 21
M  V30 21 1 20 6
M  V30 22 1 1 22
M  V30 23 1 1 23
M  V30 24 1 1 24
M  V30 25 1 2 25
M  V30 26 1 2 26
M  V30 27 1 8 27
M  V30 28 1 12 28
M  V30 29 1 12 29
M  V30 30 1 12 30
M  V30 31 1 18 31
M  V30 32 1 18 32
M  V30 33 1 18 33
M  V30 34 1 19 34
M  V30 35 1 19 35
M  V30 36 1 19 36
M  V30 37 1 21 37
M  V30 38 1 21 38
M  V30 39 1 21 39
M  V30 END BOND
M  V30 END CTAB
M  END
>  <Dataset>  (272) 
ChEMBL_Kinases

>  <Ligand_Instance>  (272) 
nan

>  <PDB_ID>  (272) 
nan

>  <Standardized_SMILES>  (272) 
CCOC(=O)c1c(NC(=O)OC)sc(C(=O)N(C)C)c1C

>  <Name>  (272) 
nan

>  <Pocket>  (272) 
nan

>  <ATP_Site>  (272) 
nan

>  <Peripheral>  (272) 
nan

>  <Num_H_Atoms_ProtBoundConf>  (272) 
nan

>  <Num_Resolved_Atoms>  (272) 
nan

>  <Num_Not_Resolved_Atoms>  (272) 
nan

$$$$
CHEMBL1585547
     RDKit          3D

  0  0  0  0  0  0  0  0  0  0999 V3000
M  V30 BEGIN CTAB
M  V30 COUNTS 54 57 0 0 0
M  V30 BEGIN ATOM
M  V30 1 C 4.730483 -4.992820 -0.376268 0
M  V30 2 O 3.509861 -4.285239 -0.259122 0
M  V30 3 C 3.093623 -3.347386 -1.178592 0
M  V30 4 O 3.877561 -3.157893 -2.140697 0
M  V30 5 C 1.817496 -2.676524 -0.961317 0
M  V30 6 C 0.972867 -2.892175 0.091182 0
M  V30 7 C -0.226504 -2.179380 0.182035 0
M  V30 8 C -0.535778 -1.251807 -0.819099 0
M  V30 9 C -1.865552 -0.615969 -0.505391 0
M  V30 10 C -1.725861 0.213031 0.737193 0
M  V30 11 C -0.814926 1.318753 0.794874 0
M  V30 12 O -0.227322 1.399304 -0.335398 0
M  V30 13 C -0.331733 2.354614 1.654239 0
M  V30 14 C 0.633429 3.195534 1.107407 0
M  V30 15 C 1.181421 4.249503 1.857067 0
M  V30 16 C 0.742553 4.432459 3.145347 0
M  V30 17 O 1.289477 5.480320 3.886053 0
M  V30 18 C 2.269355 6.318436 3.301965 0
M  V30 19 C -0.206982 3.648814 3.763646 0
M  V30 20 C -0.679380 2.648437 2.948540 0
M  V30 21 C -2.554880 -0.282538 1.630982 0
M  V30 22 O -2.848591 0.063466 2.934871 0
M  V30 23 C -3.308268 -1.417255 1.127731 0
M  V30 24 O -4.179610 -2.178782 1.615273 0
M  V30 25 N -2.852372 -1.572113 -0.201698 0
M  V30 26 C -3.307370 -2.540153 -1.168657 0
M  V30 27 C -2.574211 -3.816336 -1.172461 0
M  V30 28 C -2.995864 -4.845023 -0.320742 0
M  V30 29 C -2.190242 -5.947134 -0.471510 0
M  V30 30 C -1.279081 -5.543599 -1.436252 0
M  V30 31 O -1.543430 -4.332216 -1.795800 0
M  V30 32 C 0.321674 -1.040334 -1.877334 0
M  V30 33 C 1.484432 -1.762869 -1.921984 0
M  V30 34 H 4.600633 -6.096991 -0.344319 0
M  V30 35 H 5.244777 -4.673317 -1.315167 0
M  V30 36 H 5.433019 -4.737003 0.452626 0
M  V30 37 H 1.299042 -3.629458 0.815130 0
M  V30 38 H -0.797330 -2.439285 1.050652 0
M  V30 39 H -2.166181 -0.002540 -1.375693 0
M  V30 40 H 1.090021 3.189501 0.106121 0
M  V30 41 H 1.926853 4.918613 1.470676 0
M  V30 42 H 1.769349 6.740294 2.380988 0
M  V30 43 H 3.127636 5.721161 2.909807 0
M  V30 44 H 2.577579 7.105097 3.986335 0
M  V30 45 H -0.534169 3.810000 4.769709 0
M  V30 46 H -1.413639 2.048538 3.437068 0
M  V30 47 H -3.787257 0.370058 3.203176 0
M  V30 48 H -4.413203 -2.701476 -1.011022 0
M  V30 49 H -3.275541 -2.047855 -2.185942 0
M  V30 50 H -3.829017 -4.861079 0.391501 0
M  V30 51 H -2.217904 -6.907157 0.013959 0
M  V30 52 H -0.463808 -6.139711 -1.838724 0
M  V30 53 H -0.067049 -0.295456 -2.555702 0
M  V30 54 H 2.110871 -1.540512 -2.788562 0
M  V30 END ATOM
M  V30 BEGIN BOND
M  V30 1 1 1 2
M  V30 2 1 2 3
M  V30 3 2 3 4
M  V30 4 1 3 5
M  V30 5 2 5 6
M  V30 6 1 6 7
M  V30 7 2 7 8
M  V30 8 1 8 9
M  V30 9 1 9 10
M  V30 10 1 10 11
M  V30 11 2 11 12
M  V30 12 1 11 13
M  V30 13 2 13 14
M  V30 14 1 14 15
M  V30 15 2 15 16
M  V30 16 1 16 17
M  V30 17 1 17 18
M  V30 18 1 16 19
M  V30 19 2 19 20
M  V30 20 2 10 21
M  V30 21 1 21 22
M  V30 22 1 21 23
M  V30 23 2 23 24
M  V30 24 1 23 25
M  V30 25 1 25 26
M  V30 26 1 26 27
M  V30 27 2 27 28
M  V30 28 1 28 29
M  V30 29 2 29 30
M  V30 30 1 30 31
M  V30 31 1 8 32
M  V30 32 2 32 33
M  V30 33 1 33 5
M  V30 34 1 25 9
M  V30 35 1 31 27
M  V30 36 1 20 13
M  V30 37 1 1 34
M  V30 38 1 1 35
M  V30 39 1 1 36
M  V30 40 1 6 37
M  V30 41 1 7 38
M  V30 42 1 9 39
M  V30 43 1 14 40
M  V30 44 1 15 41
M  V30 45 1 18 42
M  V30 46 1 18 43
M  V30 47 1 18 44
M  V30 48 1 19 45
M  V30 49 1 20 46
M  V30 50 1 22 47
M  V30 51 1 26 48
M  V30 52 1 26 49
M  V30 53 1 28 50
M  V30 54 1 29 51
M  V30 55 1 30 52
M  V30 56 1 32 53
M  V30 57 1 33 54
M  V30 END BOND
M  V30 END CTAB
M  END
>  <Dataset>  (273) 
ChEMBL_Kinases

>  <Ligand_Instance>  (273) 
nan

>  <PDB_ID>  (273) 
nan

>  <Standardized_SMILES>  (273) 
COC(=O)c1ccc(C2C(C(=O)c3ccc(OC)cc3)=C(O)C(=O)N2Cc2ccco2)cc1

>  <Name>  (273) 
nan

>  <Pocket>  (273) 
nan

>  <ATP_Site>  (273) 
nan

>  <Peripheral>  (273) 
nan

>  <Num_H_Atoms_ProtBoundConf>  (273) 
nan

>  <Num_Resolved_Atoms>  (273) 
nan

>  <Num_Not_Resolved_Atoms>  (273) 
nan

$$$$
CHEMBL1585727
     RDKit          3D

  0  0  0  0  0  0  0  0  0  0999 V3000
M  V30 BEGIN CTAB
M  V30 COUNTS 56 57 0 0 0
M  V30 BEGIN ATOM
M  V30 1 C 1.944766 -3.680466 6.332615 0
M  V30 2 C 2.036541 -3.327386 4.841111 0
M  V30 3 O 3.341634 -3.014958 4.599388 0
M  V30 4 C 3.665695 -2.640432 3.309288 0
M  V30 5 C 3.353055 -3.735227 2.363142 0
M  V30 6 C 3.683243 -3.425461 0.928022 0
M  V30 7 N 3.024334 -2.318969 0.366408 0
M  V30 8 C 1.651412 -2.378757 0.146955 0
M  V30 9 C 1.017005 -1.174415 -0.450469 0
M  V30 10 C 0.520332 -0.161473 0.324760 0
M  V30 11 C -0.060999 0.939327 -0.267254 0
M  V30 12 C -0.174242 1.082789 -1.634612 0
M  V30 13 O -0.738110 2.143748 -2.326177 0
M  V30 14 C -1.311109 3.276819 -1.701250 0
M  V30 15 C -2.472626 2.989032 -0.849058 0
M  V30 16 O -2.731410 4.138491 -0.331249 0
M  V30 17 N -3.307169 1.867856 -0.485641 0
M  V30 18 C -3.343741 0.447701 -0.867282 0
M  V30 19 C -4.813357 0.025774 -0.796791 0
M  V30 20 O -5.656163 1.066564 -1.218813 0
M  V30 21 C -5.679168 2.083143 -0.259474 0
M  V30 22 C -4.367914 2.168930 0.477770 0
M  V30 23 C 0.324675 0.064793 -2.421879 0
M  V30 24 O 0.257934 0.116449 -3.810212 0
M  V30 25 C 0.779446 -0.944653 -4.580888 0
M  V30 26 C 0.906042 -1.035471 -1.821252 0
M  V30 27 H 1.223718 -4.522357 6.494026 0
M  V30 28 H 2.922100 -4.009280 6.737725 0
M  V30 29 H 1.648904 -2.799443 6.913002 0
M  V30 30 H 1.291957 -2.587692 4.552346 0
M  V30 31 H 1.795789 -4.298141 4.315970 0
M  V30 32 H 4.782516 -2.470460 3.330129 0
M  V30 33 H 3.254422 -1.652511 3.027304 0
M  V30 34 H 3.938307 -4.632207 2.651365 0
M  V30 35 H 2.277893 -4.051454 2.396029 0
M  V30 36 H 4.778997 -3.333966 0.802734 0
M  V30 37 H 3.374750 -4.333111 0.349419 0
M  V30 38 H 3.518654 -1.424651 0.352198 0
M  V30 39 H 1.137591 -2.538907 1.137095 0
M  V30 40 H 1.413447 -3.203365 -0.553213 0
M  V30 41 H 0.569392 -0.195907 1.406130 0
M  V30 42 H -0.465164 1.760870 0.312361 0
M  V30 43 H -1.588293 4.029468 -2.490430 0
M  V30 44 H -0.475154 3.768685 -1.116371 0
M  V30 45 H -2.746058 -0.090312 -0.106582 0
M  V30 46 H -2.917854 0.257122 -1.852463 0
M  V30 47 H -4.977700 -0.819510 -1.486279 0
M  V30 48 H -5.069877 -0.258028 0.231042 0
M  V30 49 H -5.857121 3.033912 -0.796705 0
M  V30 50 H -6.543807 1.941573 0.434769 0
M  V30 51 H -4.228487 3.165586 0.952477 0
M  V30 52 H -4.347497 1.362679 1.236153 0
M  V30 53 H 1.884151 -0.876198 -4.670792 0
M  V30 54 H 0.465863 -1.943221 -4.265788 0
M  V30 55 H 0.399486 -0.797725 -5.632406 0
M  V30 56 H 1.312472 -1.861061 -2.405558 0
M  V30 END ATOM
M  V30 BEGIN BOND
M  V30 1 1 1 2
M  V30 2 1 2 3
M  V30 3 1 3 4
M  V30 4 1 4 5
M  V30 5 1 5 6
M  V30 6 1 6 7
M  V30 7 1 7 8
M  V30 8 1 8 9
M  V30 9 2 9 10
M  V30 10 1 10 11
M  V30 11 2 11 12
M  V30 12 1 12 13
M  V30 13 1 13 14
M  V30 14 1 14 15
M  V30 15 2 15 16
M  V30 16 1 15 17
M  V30 17 1 17 18
M  V30 18 1 18 19
M  V30 19 1 19 20
M  V30 20 1 20 21
M  V30 21 1 21 22
M  V30 22 1 12 23
M  V30 23 1 23 24
M  V30 24 1 24 25
M  V30 25 2 23 26
M  V30 26 1 26 9
M  V30 27 1 22 17
M  V30 28 1 1 27
M  V30 29 1 1 28
M  V30 30 1 1 29
M  V30 31 1 2 30
M  V30 32 1 2 31
M  V30 33 1 4 32
M  V30 34 1 4 33
M  V30 35 1 5 34
M  V30 36 1 5 35
M  V30 37 1 6 36
M  V30 38 1 6 37
M  V30 39 1 7 38
M  V30 40 1 8 39
M  V30 41 1 8 40
M  V30 42 1 10 41
M  V30 43 1 11 42
M  V30 44 1 14 43
M  V30 45 1 14 44
M  V30 46 1 18 45
M  V30 47 1 18 46
M  V30 48 1 19 47
M  V30 49 1 19 48
M  V30 50 1 21 49
M  V30 51 1 21 50
M  V30 52 1 22 51
M  V30 53 1 22 52
M  V30 54 1 25 53
M  V30 55 1 25 54
M  V30 56 1 25 55
M  V30 57 1 26 56
M  V30 END BOND
M  V30 END CTAB
M  END
>  <Dataset>  (274) 
ChEMBL_Kinases

>  <Ligand_Instance>  (274) 
nan

>  <PDB_ID>  (274) 
nan

>  <Standardized_SMILES>  (274) 
CCOCCCNCc1ccc(OCC(=O)N2CCOCC2)c(OC)c1

>  <Name>  (274) 
nan

>  <Pocket>  (274) 
nan

>  <ATP_Site>  (274) 
nan

>  <Peripheral>  (274) 
nan

>  <Num_H_Atoms_ProtBoundConf>  (274) 
nan

>  <Num_Resolved_Atoms>  (274) 
nan

>  <Num_Not_Resolved_Atoms>  (274) 
nan

$$$$
CHEMBL1585752
     RDKit          3D

  0  0  0  0  0  0  0  0  0  0999 V3000
M  V30 BEGIN CTAB
M  V30 COUNTS 29 31 0 0 0
M  V30 BEGIN ATOM
M  V30 1 N 1.751572 -1.650841 5.066545 0
M  V30 2 C 1.763294 -2.387411 3.836879 0
M  V30 3 N 2.714054 -2.942870 3.263934 0
M  V30 4 N 2.680038 -3.582465 2.179248 0
M  V30 5 C 1.563327 -3.731459 1.508398 0
M  V30 6 S 1.189396 -4.561027 -0.026468 0
M  V30 7 C 1.393884 -3.391650 -1.423669 0
M  V30 8 C 0.352181 -2.308419 -1.316701 0
M  V30 9 C -0.938532 -2.215334 -1.825428 0
M  V30 10 O -1.453515 -1.065151 -1.451939 0
M  V30 11 C -0.569537 -0.393941 -0.723043 0
M  V30 12 C -0.665490 0.917958 -0.084578 0
M  V30 13 C 0.379630 1.482649 0.651200 0
M  V30 14 C 0.198949 2.725276 1.221107 0
M  V30 15 C -0.995702 3.441069 1.087903 0
M  V30 16 Cl -1.147809 5.013496 1.841973 0
M  V30 17 C -2.046370 2.880004 0.351686 0
M  V30 18 C -1.841824 1.628350 -0.212764 0
M  V30 19 N 0.538203 -1.153935 -0.638778 0
M  V30 20 S 0.353638 -2.788429 2.633443 0
M  V30 21 H 2.445822 -0.849277 5.013750 0
M  V30 22 H 1.104227 -1.953902 5.843543 0
M  V30 23 H 2.384528 -2.906828 -1.342531 0
M  V30 24 H 1.286984 -3.955780 -2.373115 0
M  V30 25 H -1.372637 -3.006534 -2.422519 0
M  V30 26 H 1.289564 0.903911 0.735339 0
M  V30 27 H 1.059224 3.115410 1.787871 0
M  V30 28 H -2.979208 3.423123 0.239717 0
M  V30 29 H -2.714993 1.261607 -0.772312 0
M  V30 END ATOM
M  V30 BEGIN BOND
M  V30 1 1 1 2
M  V30 2 2 2 3
M  V30 3 1 3 4
M  V30 4 2 4 5
M  V30 5 1 5 6
M  V30 6 1 6 7
M  V30 7 1 7 8
M  V30 8 2 8 9
M  V30 9 1 9 10
M  V30 10 1 10 11
M  V30 11 1 11 12
M  V30 12 2 12 13
M  V30 13 1 13 14
M  V30 14 2 14 15
M  V30 15 1 15 16
M  V30 16 1 15 17
M  V30 17 2 17 18
M  V30 18 2 11 19
M  V30 19 1 5 20
M  V30 20 1 20 2
M  V30 21 1 19 8
M  V30 22 1 18 12
M  V30 23 1 1 21
M  V30 24 1 1 22
M  V30 25 1 7 23
M  V30 26 1 7 24
M  V30 27 1 9 25
M  V30 28 1 13 26
M  V30 29 1 14 27
M  V30 30 1 17 28
M  V30 31 1 18 29
M  V30 END BOND
M  V30 END CTAB
M  END
>  <Dataset>  (275) 
ChEMBL_Kinases

>  <Ligand_Instance>  (275) 
nan

>  <PDB_ID>  (275) 
nan

>  <Standardized_SMILES>  (275) 
Nc1nnc(SCc2coc(-c3ccc(Cl)cc3)n2)s1

>  <Name>  (275) 
nan

>  <Pocket>  (275) 
nan

>  <ATP_Site>  (275) 
nan

>  <Peripheral>  (275) 
nan

>  <Num_H_Atoms_ProtBoundConf>  (275) 
nan

>  <Num_Resolved_Atoms>  (275) 
nan

>  <Num_Not_Resolved_Atoms>  (275) 
nan

$$$$
CHEMBL1586014
     RDKit          3D

  0  0  0  0  0  0  0  0  0  0999 V3000
M  V30 BEGIN CTAB
M  V30 COUNTS 42 44 0 0 0
M  V30 BEGIN ATOM
M  V30 1 C -1.447782 -6.340173 1.547521 0
M  V30 2 C -0.457320 -5.380094 2.134913 0
M  V30 3 N -0.765382 -4.214875 2.719105 0
M  V30 4 N 0.314401 -3.586186 3.140498 0
M  V30 5 C 0.351651 -2.300762 3.817088 0
M  V30 6 C 0.469997 -1.245073 2.774186 0
M  V30 7 C -0.738933 -0.739218 2.277402 0
M  V30 8 C -0.663023 0.242794 1.307388 0
M  V30 9 C 0.542205 0.722951 0.830391 0
M  V30 10 C 0.671726 1.757052 -0.191162 0
M  V30 11 O 1.787753 2.173544 -0.604943 0
M  V30 12 N -0.440377 2.371390 -0.795433 0
M  V30 13 C -0.143258 3.370975 -1.783279 0
M  V30 14 C -0.001055 4.691691 -1.390160 0
M  V30 15 C 0.285010 5.701268 -2.292899 0
M  V30 16 C 0.413961 5.282703 -3.598055 0
M  V30 17 C 0.290492 3.997236 -4.082015 0
M  V30 18 C 0.001267 3.017308 -3.127357 0
M  V30 19 F -0.134190 1.729674 -3.532228 0
M  V30 20 C 1.687316 0.173370 1.370508 0
M  V30 21 C 1.707544 -0.809678 2.341322 0
M  V30 22 C 1.376816 -4.352313 2.829677 0
M  V30 23 C 2.797090 -4.094424 3.085833 0
M  V30 24 C 0.905471 -5.487592 2.194743 0
M  V30 25 Cl 1.839501 -6.834583 1.568668 0
M  V30 26 H -2.012270 -5.784186 0.759447 0
M  V30 27 H -0.882269 -7.189746 1.157327 0
M  V30 28 H -2.136977 -6.620816 2.353882 0
M  V30 29 H -0.539931 -2.156339 4.457690 0
M  V30 30 H 1.248927 -2.319209 4.471590 0
M  V30 31 H -1.689303 -1.096480 2.632435 0
M  V30 32 H -1.575414 0.658022 0.899412 0
M  V30 33 H -1.414938 2.106635 -0.531809 0
M  V30 34 H -0.116446 4.961017 -0.330462 0
M  V30 35 H 0.404835 6.744207 -2.033543 0
M  V30 36 H 0.638536 6.038927 -4.344133 0
M  V30 37 H 0.412783 3.782619 -5.132277 0
M  V30 38 H 2.655528 0.544857 1.001383 0
M  V30 39 H 2.624666 -1.217845 2.742297 0
M  V30 40 H 2.972528 -3.342735 3.882932 0
M  V30 41 H 3.310598 -5.062409 3.316444 0
M  V30 42 H 3.313159 -3.686051 2.187387 0
M  V30 END ATOM
M  V30 BEGIN BOND
M  V30 1 1 1 2
M  V30 2 2 2 3
M  V30 3 1 3 4
M  V30 4 1 4 5
M  V30 5 1 5 6
M  V30 6 2 6 7
M  V30 7 1 7 8
M  V30 8 2 8 9
M  V30 9 1 9 10
M  V30 10 2 10 11
M  V30 11 1 10 12
M  V30 12 1 12 13
M  V30 13 2 13 14
M  V30 14 1 14 15
M  V30 15 2 15 16
M  V30 16 1 16 17
M  V30 17 2 17 18
M  V30 18 1 18 19
M  V30 19 1 9 20
M  V30 20 2 20 21
M  V30 21 1 4 22
M  V30 22 1 22 23
M  V30 23 2 22 24
M  V30 24 1 24 25
M  V30 25 1 24 2
M  V30 26 1 21 6
M  V30 27 1 18 13
M  V30 28 1 1 26
M  V30 29 1 1 27
M  V30 30 1 1 28
M  V30 31 1 5 29
M  V30 32 1 5 30
M  V30 33 1 7 31
M  V30 34 1 8 32
M  V30 35 1 12 33
M  V30 36 1 14 34
M  V30 37 1 15 35
M  V30 38 1 16 36
M  V30 39 1 17 37
M  V30 40 1 20 38
M  V30 41 1 21 39
M  V30 42 1 23 40
M  V30 43 1 23 41
M  V30 44 1 23 42
M  V30 END BOND
M  V30 END CTAB
M  END
>  <Dataset>  (276) 
ChEMBL_Kinases

>  <Ligand_Instance>  (276) 
nan

>  <PDB_ID>  (276) 
nan

>  <Standardized_SMILES>  (276) 
Cc1nn(Cc2ccc(C(=O)Nc3ccccc3F)cc2)c(C)c1Cl

>  <Name>  (276) 
nan

>  <Pocket>  (276) 
nan

>  <ATP_Site>  (276) 
nan

>  <Peripheral>  (276) 
nan

>  <Num_H_Atoms_ProtBoundConf>  (276) 
nan

>  <Num_Resolved_Atoms>  (276) 
nan

>  <Num_Not_Resolved_Atoms>  (276) 
nan

$$$$
CHEMBL1586111
     RDKit          3D

  0  0  0  0  0  0  0  0  0  0999 V3000
M  V30 BEGIN CTAB
M  V30 COUNTS 42 46 0 0 0
M  V30 BEGIN ATOM
M  V30 1 C -1.253927 -4.852563 -0.035617 0
M  V30 2 C -1.269511 -3.597681 0.757320 0
M  V30 3 N -0.370093 -2.607523 0.519535 0
M  V30 4 N -0.421076 -1.491912 1.259631 0
M  V30 5 C 0.366941 -0.377924 1.204122 0
M  V30 6 C 1.440984 0.001102 0.421974 0
M  V30 7 C 2.067280 1.214917 0.581512 0
M  V30 8 N 3.167149 1.588179 -0.230323 0
M  V30 9 C 3.731284 0.788032 -1.298700 0
M  V30 10 C 3.758812 1.613739 -2.577403 0
M  V30 11 O 4.258904 2.874916 -2.407180 0
M  V30 12 C 3.560597 3.578997 -1.408568 0
M  V30 13 C 3.902370 2.833153 -0.117827 0
M  V30 14 C 1.585926 2.055055 1.558317 0
M  V30 15 C 0.511062 1.696316 2.353843 0
M  V30 16 C -0.112450 0.484448 2.192886 0
M  V30 17 N -1.161188 -0.123224 2.809285 0
M  V30 18 C -1.344955 -1.343688 2.226512 0
M  V30 19 C -2.281940 -2.320454 2.508179 0
M  V30 20 C -3.232857 -2.147605 3.515937 0
M  V30 21 C -4.123244 -3.161455 3.730475 0
M  V30 22 C -4.056950 -4.295578 2.964400 0
M  V30 23 C -3.142917 -4.502652 1.970348 0
M  V30 24 C -2.231145 -3.482058 1.739742 0
M  V30 25 H -0.966623 -5.704392 0.615184 0
M  V30 26 H -2.294946 -4.968656 -0.431454 0
M  V30 27 H -0.501253 -4.791799 -0.865407 0
M  V30 28 H 1.726109 -0.721894 -0.296208 0
M  V30 29 H 3.261633 -0.164187 -1.484416 0
M  V30 30 H 4.819095 0.637725 -1.032786 0
M  V30 31 H 2.749336 1.621306 -3.060111 0
M  V30 32 H 4.445483 1.072320 -3.270232 0
M  V30 33 H 2.478613 3.434128 -1.594019 0
M  V30 34 H 3.885613 4.620361 -1.372764 0
M  V30 35 H 3.711714 3.420258 0.768293 0
M  V30 36 H 5.003416 2.675807 -0.172479 0
M  V30 37 H 2.000895 3.026782 1.767082 0
M  V30 38 H 0.111003 2.332444 3.127173 0
M  V30 39 H -3.183192 -1.220213 4.044000 0
M  V30 40 H -4.847504 -2.990330 4.522496 0
M  V30 41 H -4.764406 -5.093126 3.139826 0
M  V30 42 H -3.119154 -5.403621 1.389133 0
M  V30 END ATOM
M  V30 BEGIN BOND
M  V30 1 1 1 2
M  V30 2 2 2 3
M  V30 3 1 3 4
M  V30 4 1 4 5
M  V30 5 2 5 6
M  V30 6 1 6 7
M  V30 7 1 7 8
M  V30 8 1 8 9
M  V30 9 1 9 10
M  V30 10 1 10 11
M  V30 11 1 11 12
M  V30 12 1 12 13
M  V30 13 2 7 14
M  V30 14 1 14 15
M  V30 15 2 15 16
M  V30 16 1 16 17
M  V30 17 2 17 18
M  V30 18 1 18 19
M  V30 19 2 19 20
M  V30 20 1 20 21
M  V30 21 2 21 22
M  V30 22 1 22 23
M  V30 23 2 23 24
M  V30 24 1 24 2
M  V30 25 1 18 4
M  V30 26 1 24 19
M  V30 27 1 16 5
M  V30 28 1 13 8
M  V30 29 1 1 25
M  V30 30 1 1 26
M  V30 31 1 1 27
M  V30 32 1 6 28
M  V30 33 1 9 29
M  V30 34 1 9 30
M  V30 35 1 10 31
M  V30 36 1 10 32
M  V30 37 1 12 33
M  V30 38 1 12 34
M  V30 39 1 13 35
M  V30 40 1 13 36
M  V30 41 1 14 37
M  V30 42 1 15 38
M  V30 43 1 20 39
M  V30 44 1 21 40
M  V30 45 1 22 41
M  V30 46 1 23 42
M  V30 END BOND
M  V30 END CTAB
M  END
>  <Dataset>  (277) 
ChEMBL_Kinases

>  <Ligand_Instance>  (277) 
nan

>  <PDB_ID>  (277) 
nan

>  <Standardized_SMILES>  (277) 
Cc1nn2c3cc(N4CCOCC4)ccc3nc2c2ccccc12

>  <Name>  (277) 
nan

>  <Pocket>  (277) 
nan

>  <ATP_Site>  (277) 
nan

>  <Peripheral>  (277) 
nan

>  <Num_H_Atoms_ProtBoundConf>  (277) 
nan

>  <Num_Resolved_Atoms>  (277) 
nan

>  <Num_Not_Resolved_Atoms>  (277) 
nan

$$$$
CHEMBL1586251
     RDKit          3D

  0  0  0  0  0  0  0  0  0  0999 V3000
M  V30 BEGIN CTAB
M  V30 COUNTS 31 31 0 0 0
M  V30 BEGIN ATOM
M  V30 1 C 0.177138 -3.542826 4.265692 0
M  V30 2 C 0.438649 -2.603792 3.177417 0
M  V30 3 N -0.009583 -1.260204 3.186857 0
M  V30 4 C 1.112921 -2.900437 2.079485 0
M  V30 5 C 1.577512 -4.286718 2.065729 0
M  V30 6 N 1.960398 -5.399555 2.036375 0
M  V30 7 C 1.483964 -2.144228 0.897467 0
M  V30 8 O 2.158297 -2.644869 -0.072369 0
M  V30 9 N 1.212598 -0.798543 0.568643 0
M  V30 10 C 1.767838 -0.456369 -0.703210 0
M  V30 11 C 1.499211 0.973263 -1.094438 0
M  V30 12 C 0.057371 1.284341 -1.189085 0
M  V30 13 C -0.731078 1.744894 -0.181441 0
M  V30 14 C -2.076450 2.026768 -0.305155 0
M  V30 15 C -2.678062 1.833073 -1.529937 0
M  V30 16 C -1.849572 1.361067 -2.545250 0
M  V30 17 N -0.543362 1.095475 -2.395527 0
M  V30 18 H -0.083024 -4.568544 3.912779 0
M  V30 19 H 0.992462 -3.620065 5.011434 0
M  V30 20 H -0.731179 -3.196777 4.807739 0
M  V30 21 H 0.593786 -0.508872 3.635042 0
M  V30 22 H -0.930667 -1.275548 2.706401 0
M  V30 23 H 0.671385 -0.237750 1.246848 0
M  V30 24 H 2.836979 -0.687998 -0.827142 0
M  V30 25 H 1.244965 -1.099838 -1.457454 0
M  V30 26 H 1.964686 1.177347 -2.080179 0
M  V30 27 H 2.025836 1.679002 -0.392980 0
M  V30 28 H -0.290655 1.903562 0.773383 0
M  V30 29 H -2.671217 2.393608 0.526104 0
M  V30 30 H -3.725553 2.034767 -1.691265 0
M  V30 31 H -2.300957 1.201453 -3.516497 0
M  V30 END ATOM
M  V30 BEGIN BOND
M  V30 1 1 1 2
M  V30 2 1 2 3
M  V30 3 2 2 4
M  V30 4 1 4 5
M  V30 5 3 5 6
M  V30 6 1 4 7
M  V30 7 2 7 8
M  V30 8 1 7 9
M  V30 9 1 9 10
M  V30 10 1 10 11
M  V30 11 1 11 12
M  V30 12 2 12 13
M  V30 13 1 13 14
M  V30 14 2 14 15
M  V30 15 1 15 16
M  V30 16 2 16 17
M  V30 17 1 17 12
M  V30 18 1 1 18
M  V30 19 1 1 19
M  V30 20 1 1 20
M  V30 21 1 3 21
M  V30 22 1 3 22
M  V30 23 1 9 23
M  V30 24 1 10 24
M  V30 25 1 10 25
M  V30 26 1 11 26
M  V30 27 1 11 27
M  V30 28 1 13 28
M  V30 29 1 14 29
M  V30 30 1 15 30
M  V30 31 1 16 31
M  V30 END BOND
M  V30 END CTAB
M  END
>  <Dataset>  (278) 
ChEMBL_Kinases

>  <Ligand_Instance>  (278) 
nan

>  <PDB_ID>  (278) 
nan

>  <Standardized_SMILES>  (278) 
C/C(N)=C(\C#N)C(=O)NCCc1ccccn1

>  <Name>  (278) 
nan

>  <Pocket>  (278) 
nan

>  <ATP_Site>  (278) 
nan

>  <Peripheral>  (278) 
nan

>  <Num_H_Atoms_ProtBoundConf>  (278) 
nan

>  <Num_Resolved_Atoms>  (278) 
nan

>  <Num_Not_Resolved_Atoms>  (278) 
nan

$$$$
CHEMBL1585301
     RDKit          3D

  0  0  0  0  0  0  0  0  0  0999 V3000
M  V30 BEGIN CTAB
M  V30 COUNTS 57 60 0 0 0
M  V30 BEGIN ATOM
M  V30 1 O 1.271035 -1.104106 -3.256771 0
M  V30 2 C 0.460670 -1.121942 -2.270551 0
M  V30 3 C 0.870115 -0.440315 -1.042777 0
M  V30 4 C 2.082270 0.133879 -1.123150 0
M  V30 5 C 2.367255 0.794134 0.209464 0 CFG=2
M  V30 6 C 3.763301 1.305396 0.074408 0
M  V30 7 C 4.785087 0.367647 0.017602 0
M  V30 8 C 6.036784 0.890041 -0.110365 0
M  V30 9 C 6.403553 2.213809 -0.188673 0
M  V30 10 Br 8.183926 2.857613 -0.370477 0
M  V30 11 C 5.323006 3.087953 -0.124609 0
M  V30 12 C 3.990192 2.682487 0.006360 0
M  V30 13 C 2.232658 -0.234339 1.281249 0
M  V30 14 C 0.779219 -0.670488 1.349309 0 CFG=2
M  V30 15 O 0.644678 -2.014915 1.550781 0
M  V30 16 C 0.021335 -2.424954 2.688275 0
M  V30 17 C -1.358374 -1.995709 2.895972 0
M  V30 18 C -1.809653 -0.905844 3.595411 0
M  V30 19 C -3.140567 -0.585704 3.723613 0
M  V30 20 C -4.151140 -1.356094 3.144210 0
M  V30 21 C -5.534082 -0.923486 3.344850 0
M  V30 22 O -5.988039 -0.050287 2.356665 0
M  V30 23 C -3.702176 -2.456235 2.437890 0
M  V30 24 C -2.365904 -2.764840 2.317417 0
M  V30 25 O 0.146940 -0.345509 0.127706 0
M  V30 26 N -0.784801 -1.803006 -2.435767 0
M  V30 27 C -1.705639 -1.831104 -1.317586 0
M  V30 28 C -3.001873 -2.498775 -1.603651 0
M  V30 29 O -3.104161 -3.111600 -2.843301 0
M  V30 30 C -2.590781 -2.319658 -3.868358 0
M  V30 31 C -1.075136 -2.432278 -3.712155 0
M  V30 32 H 2.754475 0.143759 -1.962387 0
M  V30 33 H 1.665904 1.635798 0.338585 0
M  V30 34 H 4.597892 -0.694279 0.070875 0
M  V30 35 H 6.854528 0.152704 -0.156266 0
M  V30 36 H 5.463996 4.164696 -0.175600 0
M  V30 37 H 3.195181 3.412154 0.049023 0
M  V30 38 H 2.909266 -1.104373 1.139893 0
M  V30 39 H 2.493616 0.211172 2.258700 0
M  V30 40 H 0.322487 -0.088233 2.194272 0
M  V30 41 H 0.628913 -2.187644 3.597715 0
M  V30 42 H 0.021366 -3.557514 2.655397 0
M  V30 43 H -1.089727 -0.277076 4.070651 0
M  V30 44 H -3.405795 0.308142 4.302280 0
M  V30 45 H -6.266501 -1.750935 3.407267 0
M  V30 46 H -5.597015 -0.376632 4.313259 0
M  V30 47 H -5.661767 0.872921 2.480224 0
M  V30 48 H -4.501647 -3.044476 1.995353 0
M  V30 49 H -2.198383 -3.655729 1.732500 0
M  V30 50 H -1.161160 -2.317389 -0.482943 0
M  V30 51 H -1.907044 -0.779878 -0.990660 0
M  V30 52 H -3.139194 -3.329227 -0.859996 0
M  V30 53 H -3.870108 -1.813568 -1.415175 0
M  V30 54 H -2.910456 -2.718216 -4.827008 0
M  V30 55 H -2.854093 -1.245354 -3.726599 0
M  V30 56 H -0.776187 -3.495254 -3.622229 0
M  V30 57 H -0.556234 -1.921089 -4.549031 0
M  V30 END ATOM
M  V30 BEGIN BOND
M  V30 1 2 1 2
M  V30 2 1 2 3
M  V30 3 2 3 4
M  V30 4 1 4 5
M  V30 5 1 5 6
M  V30 6 2 6 7
M  V30 7 1 7 8
M  V30 8 2 8 9
M  V30 9 1 9 10
M  V30 10 1 9 11
M  V30 11 2 11 12
M  V30 12 1 5 13
M  V30 13 1 13 14
M  V30 14 1 14 15
M  V30 15 1 15 16
M  V30 16 1 16 17
M  V30 17 2 17 18
M  V30 18 1 18 19
M  V30 19 2 19 20
M  V30 20 1 20 21
M  V30 21 1 21 22
M  V30 22 1 20 23
M  V30 23 2 23 24
M  V30 24 1 14 25
M  V30 25 1 2 26
M  V30 26 1 26 27
M  V30 27 1 27 28
M  V30 28 1 28 29
M  V30 29 1 29 30
M  V30 30 1 30 31
M  V30 31 1 25 3
M  V30 32 1 31 26
M  V30 33 1 12 6
M  V30 34 1 24 17
M  V30 35 1 4 32
M  V30 36 1 5 33 CFG=1
M  V30 37 1 7 34
M  V30 38 1 8 35
M  V30 39 1 11 36
M  V30 40 1 12 37
M  V30 41 1 13 38
M  V30 42 1 13 39
M  V30 43 1 14 40 CFG=1
M  V30 44 1 16 41
M  V30 45 1 16 42
M  V30 46 1 18 43
M  V30 47 1 19 44
M  V30 48 1 21 45
M  V30 49 1 21 46
M  V30 50 1 22 47
M  V30 51 1 23 48
M  V30 52 1 24 49
M  V30 53 1 27 50
M  V30 54 1 27 51
M  V30 55 1 28 52
M  V30 56 1 28 53
M  V30 57 1 30 54
M  V30 58 1 30 55
M  V30 59 1 31 56
M  V30 60 1 31 57
M  V30 END BOND
M  V30 END CTAB
M  END
>  <Dataset>  (279) 
ChEMBL_Kinases

>  <Ligand_Instance>  (279) 
nan

>  <PDB_ID>  (279) 
nan

>  <Standardized_SMILES>  (279) 
O=C(C1=C[C@H](c2ccc(Br)cc2)C[C@H](OCc2ccc(CO)cc2)O1)N1CCOCC1

>  <Name>  (279) 
nan

>  <Pocket>  (279) 
nan

>  <ATP_Site>  (279) 
nan

>  <Peripheral>  (279) 
nan

>  <Num_H_Atoms_ProtBoundConf>  (279) 
nan

>  <Num_Resolved_Atoms>  (279) 
nan

>  <Num_Not_Resolved_Atoms>  (279) 
nan

$$$$
CHEMBL1451173
     RDKit          3D

  0  0  0  0  0  0  0  0  0  0999 V3000
M  V30 BEGIN CTAB
M  V30 COUNTS 27 27 0 0 0
M  V30 BEGIN ATOM
M  V30 1 C -0.794133 -4.324674 1.980949 0
M  V30 2 C 0.013965 -3.095838 1.781220 0
M  V30 3 O 1.159003 -3.173499 1.311490 0
M  V30 4 O -0.355031 -1.776635 2.065449 0
M  V30 5 C 0.569744 -0.756727 1.797219 0
M  V30 6 C 1.451960 -0.405823 2.810354 0
M  V30 7 C 2.357363 0.599343 2.534231 0
M  V30 8 C 2.430418 1.265662 1.318104 0
M  V30 9 C 1.522844 0.863297 0.360252 0
M  V30 10 C 1.531464 1.512482 -0.947272 0
M  V30 11 O 0.715619 1.166401 -1.840316 0
M  V30 12 O 2.440086 2.533593 -1.249535 0
M  V30 13 C 0.588302 -0.130909 0.556913 0
M  V30 14 O -0.305057 -0.496449 -0.448193 0
M  V30 15 C -1.531059 0.162210 -0.518947 0
M  V30 16 C -2.670882 0.017227 -1.438871 0
M  V30 17 O -1.613977 1.022083 0.395805 0
M  V30 18 H -0.691677 -4.896721 1.017304 0
M  V30 19 H -1.856881 -4.100910 2.164406 0
M  V30 20 H -0.345141 -4.980170 2.755782 0
M  V30 21 H 1.409754 -0.911909 3.760040 0
M  V30 22 H 3.033689 0.849038 3.350340 0
M  V30 23 H 3.154487 2.049799 1.137503 0
M  V30 24 H 2.659658 2.801565 -2.204318 0
M  V30 25 H -2.939592 1.052076 -1.802109 0
M  V30 26 H -2.492868 -0.673677 -2.263576 0
M  V30 27 H -3.596398 -0.315199 -0.905989 0
M  V30 END ATOM
M  V30 BEGIN BOND
M  V30 1 1 1 2
M  V30 2 2 2 3
M  V30 3 1 2 4
M  V30 4 1 4 5
M  V30 5 2 5 6
M  V30 6 1 6 7
M  V30 7 2 7 8
M  V30 8 1 8 9
M  V30 9 1 9 10
M  V30 10 2 10 11
M  V30 11 1 10 12
M  V30 12 2 9 13
M  V30 13 1 13 14
M  V30 14 1 14 15
M  V30 15 1 15 16
M  V30 16 2 15 17
M  V30 17 1 13 5
M  V30 18 1 1 18
M  V30 19 1 1 19
M  V30 20 1 1 20
M  V30 21 1 6 21
M  V30 22 1 7 22
M  V30 23 1 8 23
M  V30 24 1 12 24
M  V30 25 1 16 25
M  V30 26 1 16 26
M  V30 27 1 16 27
M  V30 END BOND
M  V30 END CTAB
M  END
>  <Dataset>  (280) 
ChEMBL_Kinases

>  <Ligand_Instance>  (280) 
nan

>  <PDB_ID>  (280) 
nan

>  <Standardized_SMILES>  (280) 
CC(=O)Oc1cccc(C(=O)O)c1OC(C)=O

>  <Name>  (280) 
DIPYROCETYL

>  <Pocket>  (280) 
nan

>  <ATP_Site>  (280) 
nan

>  <Peripheral>  (280) 
nan

>  <Num_H_Atoms_ProtBoundConf>  (280) 
nan

>  <Num_Resolved_Atoms>  (280) 
nan

>  <Num_Not_Resolved_Atoms>  (280) 
nan

$$$$
CHEMBL1451172
     RDKit          3D

  0  0  0  0  0  0  0  0  0  0999 V3000
M  V30 BEGIN CTAB
M  V30 COUNTS 61 65 0 0 0
M  V30 BEGIN ATOM
M  V30 1 O -2.388297 -3.007414 3.606821 0
M  V30 2 C -1.543166 -2.595927 2.731616 0
M  V30 3 C -1.014192 -1.212004 2.808401 0
M  V30 4 C 0.488229 -1.146437 2.922440 0
M  V30 5 C 0.964783 0.241117 2.533669 0
M  V30 6 N 0.639931 0.568603 1.210518 0
M  V30 7 S 1.772121 0.292679 0.001687 0
M  V30 8 O 2.259399 -1.148705 -0.070353 0
M  V30 9 O 1.347035 0.665470 -1.362912 0
M  V30 10 C 3.196088 1.281486 0.359757 0
M  V30 11 C 4.486656 0.842153 0.573861 0
M  V30 12 C 5.486625 1.728362 0.838015 0
M  V30 13 C 5.290178 3.091905 0.909415 0
M  V30 14 C 3.997583 3.531305 0.694346 0
M  V30 15 C 3.792766 4.897738 0.766818 0
M  V30 16 C 2.513520 5.412323 0.563454 0
M  V30 17 C 1.530284 4.485461 0.298832 0
M  V30 18 N 1.719141 3.159087 0.226800 0
M  V30 19 C 2.961660 2.659097 0.424433 0
M  V30 20 C -0.725941 0.468488 0.915547 0
M  V30 21 C -1.602754 -0.402165 1.720596 0
M  V30 22 N -1.136185 -3.512754 1.692190 0
M  V30 23 C -0.210148 -3.373083 0.585111 0
M  V30 24 C -0.661164 -4.169592 -0.615922 0
M  V30 25 N -2.106690 -4.180060 -0.615313 0
M  V30 26 C -2.913984 -3.523950 -1.579759 0
M  V30 27 C -2.426465 -2.723728 -2.585145 0
M  V30 28 C -3.209343 -2.087095 -3.529337 0
M  V30 29 C -4.576080 -2.244273 -3.488426 0
M  V30 30 Cl -5.542276 -1.424594 -4.697975 0
M  V30 31 C -5.115822 -3.050623 -2.480981 0
M  V30 32 C -4.283710 -3.660235 -1.566582 0
M  V30 33 C -2.681598 -4.935423 0.484482 0
M  V30 34 C -1.744217 -4.852188 1.700172 0
M  V30 35 H -1.383875 -0.798104 3.800976 0
M  V30 36 H 1.040440 -1.845778 2.297653 0
M  V30 37 H 0.793392 -1.309728 3.971870 0
M  V30 38 H 2.040212 0.311847 2.790186 0
M  V30 39 H 0.427788 0.950470 3.225672 0
M  V30 40 H 4.574314 -0.233465 0.504874 0
M  V30 41 H 6.486628 1.334868 0.999229 0
M  V30 42 H 6.112894 3.765918 1.122103 0
M  V30 43 H 4.617317 5.576383 0.981373 0
M  V30 44 H 2.353811 6.478361 0.620421 0
M  V30 45 H 0.542091 4.931317 0.145623 0
M  V30 46 H -1.137103 1.533827 0.954273 0
M  V30 47 H -0.834589 0.170269 -0.176688 0
M  V30 48 H -2.422233 0.246889 2.173155 0
M  V30 49 H -2.175224 -1.075610 1.038449 0
M  V30 50 H -0.198604 -2.314627 0.288508 0
M  V30 51 H 0.806357 -3.744978 0.862419 0
M  V30 52 H -0.198750 -3.802549 -1.543132 0
M  V30 53 H -0.328741 -5.230631 -0.463572 0
M  V30 54 H -1.353148 -2.569831 -2.657973 0
M  V30 55 H -2.721771 -1.465918 -4.294766 0
M  V30 56 H -6.192730 -3.140959 -2.492874 0
M  V30 57 H -4.820245 -4.240654 -0.863070 0
M  V30 58 H -2.715067 -5.999899 0.199710 0
M  V30 59 H -3.694252 -4.590070 0.778608 0
M  V30 60 H -0.926178 -5.590228 1.586854 0
M  V30 61 H -2.284516 -5.082759 2.609272 0
M  V30 END ATOM
M  V30 BEGIN BOND
M  V30 1 2 1 2
M  V30 2 1 2 3
M  V30 3 1 3 4
M  V30 4 1 4 5
M  V30 5 1 5 6
M  V30 6 1 6 7
M  V30 7 2 7 8
M  V30 8 2 7 9
M  V30 9 1 7 10
M  V30 10 2 10 11
M  V30 11 1 11 12
M  V30 12 2 12 13
M  V30 13 1 13 14
M  V30 14 2 14 15
M  V30 15 1 15 16
M  V30 16 2 16 17
M  V30 17 1 17 18
M  V30 18 2 18 19
M  V30 19 1 6 20
M  V30 20 1 20 21
M  V30 21 1 2 22
M  V30 22 1 22 23
M  V30 23 1 23 24
M  V30 24 1 24 25
M  V30 25 1 25 26
M  V30 26 2 26 27
M  V30 27 1 27 28
M  V30 28 2 28 29
M  V30 29 1 29 30
M  V30 30 1 29 31
M  V30 31 2 31 32
M  V30 32 1 25 33
M  V30 33 1 33 34
M  V30 34 1 21 3
M  V30 35 1 34 22
M  V30 36 1 19 10
M  V30 37 1 32 26
M  V30 38 1 19 14
M  V30 39 1 3 35
M  V30 40 1 4 36
M  V30 41 1 4 37
M  V30 42 1 5 38
M  V30 43 1 5 39
M  V30 44 1 11 40
M  V30 45 1 12 41
M  V30 46 1 13 42
M  V30 47 1 15 43
M  V30 48 1 16 44
M  V30 49 1 17 45
M  V30 50 1 20 46
M  V30 51 1 20 47
M  V30 52 1 21 48
M  V30 53 1 21 49
M  V30 54 1 23 50
M  V30 55 1 23 51
M  V30 56 1 24 52
M  V30 57 1 24 53
M  V30 58 1 27 54
M  V30 59 1 28 55
M  V30 60 1 31 56
M  V30 61 1 32 57
M  V30 62 1 33 58
M  V30 63 1 33 59
M  V30 64 1 34 60
M  V30 65 1 34 61
M  V30 END BOND
M  V30 END CTAB
M  END
>  <Dataset>  (281) 
ChEMBL_Kinases

>  <Ligand_Instance>  (281) 
nan

>  <PDB_ID>  (281) 
nan

>  <Standardized_SMILES>  (281) 
O=C(C1CCN(S(=O)(=O)c2cccc3cccnc23)CC1)N1CCN(c2ccc(Cl)cc2)CC1

>  <Name>  (281) 
nan

>  <Pocket>  (281) 
nan

>  <ATP_Site>  (281) 
nan

>  <Peripheral>  (281) 
nan

>  <Num_H_Atoms_ProtBoundConf>  (281) 
nan

>  <Num_Resolved_Atoms>  (281) 
nan

>  <Num_Not_Resolved_Atoms>  (281) 
nan

$$$$
CHEMBL1451088
     RDKit          3D

  0  0  0  0  0  0  0  0  0  0999 V3000
M  V30 BEGIN CTAB
M  V30 COUNTS 52 54 0 0 0
M  V30 BEGIN ATOM
M  V30 1 C -1.121602 -6.261780 4.285775 0
M  V30 2 C -0.739466 -4.865956 3.943076 0
M  V30 3 C -0.983310 -3.951327 4.971611 0
M  V30 4 C -0.639891 -2.643424 4.685458 0
M  V30 5 C -0.098765 -2.247589 3.488921 0
M  V30 6 N 0.242951 -0.983795 3.180540 0
M  V30 7 C 0.769836 -0.610437 2.001218 0
M  V30 8 O 1.006559 0.737776 2.011515 0
M  V30 9 C 1.023227 -1.499456 0.956804 0
M  V30 10 C 1.579785 -0.962909 -0.272287 0
M  V30 11 N 0.598681 -0.306487 -1.156010 0
M  V30 12 C 0.070155 1.018955 -1.304462 0
M  V30 13 O -0.785935 1.553343 -2.096771 0
M  V30 14 C 0.271661 2.301550 -0.633245 0
M  V30 15 C 1.457604 3.015544 -0.871740 0
M  V30 16 C 1.687996 4.240055 -0.227581 0
M  V30 17 C 0.737504 4.739141 0.644980 0
M  V30 18 C -0.448264 4.103792 0.933123 0
M  V30 19 N -1.454423 4.573757 1.816794 0 CHG=1 VAL=4
M  V30 20 O -2.485905 3.900023 1.980088 0
M  V30 21 O -1.231257 5.769911 2.453616 0 CHG=-1 VAL=1
M  V30 22 C -0.605465 2.908396 0.264915 0
M  V30 23 C -0.078294 -1.037211 -2.210934 0
M  V30 24 C 0.398864 -2.453324 -2.372704 0
M  V30 25 C -1.575370 -1.170220 -1.889248 0
M  V30 26 C 0.014568 -0.373926 -3.562139 0
M  V30 27 C 0.669081 -2.786531 1.290690 0
M  V30 28 C 0.128507 -3.177315 2.495729 0
M  V30 29 C -0.195797 -4.498061 2.728488 0
M  V30 30 H -2.047216 -6.267215 4.916112 0
M  V30 31 H -1.396210 -6.816640 3.349174 0
M  V30 32 H -0.291343 -6.810366 4.760540 0
M  V30 33 H -1.392946 -4.126845 5.935218 0
M  V30 34 H -0.787033 -1.864397 5.408229 0
M  V30 35 H 1.863945 1.170662 1.679476 0
M  V30 36 H 2.277943 -0.114306 0.000196 0
M  V30 37 H 2.102975 -1.711891 -0.874439 0
M  V30 38 H 2.182333 2.607686 -1.553829 0
M  V30 39 H 2.595999 4.811716 -0.394651 0
M  V30 40 H 0.917502 5.699858 1.152471 0
M  V30 41 H -1.494225 2.307888 0.404388 0
M  V30 42 H 0.117282 -3.121968 -1.572027 0
M  V30 43 H 1.470272 -2.462568 -2.611508 0
M  V30 44 H -0.159349 -2.861441 -3.282648 0
M  V30 45 H -1.669359 -1.551837 -0.856268 0
M  V30 46 H -1.942677 -1.966375 -2.589170 0
M  V30 47 H -2.129160 -0.259086 -2.094026 0
M  V30 48 H -0.997859 -0.214281 -4.007510 0
M  V30 49 H 0.506469 -1.072201 -4.307449 0
M  V30 50 H 0.638044 0.533609 -3.584721 0
M  V30 51 H 0.833887 -3.554808 0.568102 0
M  V30 52 H -0.048168 -5.284231 2.001806 0
M  V30 END ATOM
M  V30 BEGIN BOND
M  V30 1 1 1 2
M  V30 2 2 2 3
M  V30 3 1 3 4
M  V30 4 2 4 5
M  V30 5 1 5 6
M  V30 6 2 6 7
M  V30 7 1 7 8
M  V30 8 1 7 9
M  V30 9 1 9 10
M  V30 10 1 10 11
M  V30 11 1 11 12
M  V30 12 2 12 13
M  V30 13 1 12 14
M  V30 14 2 14 15
M  V30 15 1 15 16
M  V30 16 2 16 17
M  V30 17 1 17 18
M  V30 18 1 18 19
M  V30 19 2 19 20
M  V30 20 1 19 21
M  V30 21 2 18 22
M  V30 22 1 11 23
M  V30 23 1 23 24
M  V30 24 1 23 25
M  V30 25 1 23 26
M  V30 26 2 9 27
M  V30 27 1 27 28
M  V30 28 2 28 29
M  V30 29 1 29 2
M  V30 30 1 28 5
M  V30 31 1 22 14
M  V30 32 1 1 30
M  V30 33 1 1 31
M  V30 34 1 1 32
M  V30 35 1 3 33
M  V30 36 1 4 34
M  V30 37 1 8 35
M  V30 38 1 10 36
M  V30 39 1 10 37
M  V30 40 1 15 38
M  V30 41 1 16 39
M  V30 42 1 17 40
M  V30 43 1 22 41
M  V30 44 1 24 42
M  V30 45 1 24 43
M  V30 46 1 24 44
M  V30 47 1 25 45
M  V30 48 1 25 46
M  V30 49 1 25 47
M  V30 50 1 26 48
M  V30 51 1 26 49
M  V30 52 1 26 50
M  V30 53 1 27 51
M  V30 54 1 29 52
M  V30 END BOND
M  V30 END CTAB
M  END
>  <Dataset>  (282) 
ChEMBL_Kinases

>  <Ligand_Instance>  (282) 
nan

>  <PDB_ID>  (282) 
nan

>  <Standardized_SMILES>  (282) 
Cc1ccc2nc(O)c(CN(C(=O)c3cccc([N+](=O)[O-])c3)C(C)(C)C)cc2c1

>  <Name>  (282) 
nan

>  <Pocket>  (282) 
nan

>  <ATP_Site>  (282) 
nan

>  <Peripheral>  (282) 
nan

>  <Num_H_Atoms_ProtBoundConf>  (282) 
nan

>  <Num_Resolved_Atoms>  (282) 
nan

>  <Num_Not_Resolved_Atoms>  (282) 
nan

$$$$
CHEMBL1450772
     RDKit          3D

  0  0  0  0  0  0  0  0  0  0999 V3000
M  V30 BEGIN CTAB
M  V30 COUNTS 39 41 0 0 0
M  V30 BEGIN ATOM
M  V30 1 C 0.360027 -6.832502 2.579436 0
M  V30 2 C 0.520448 -5.346636 2.561211 0
M  V30 3 C 0.323375 -4.758979 1.348125 0
M  V30 4 C 0.470960 -3.374752 1.214885 0
M  V30 5 C 0.812859 -2.575215 2.276348 0
M  V30 6 N 1.004490 -1.169024 2.219364 0
M  V30 7 C 0.875484 -0.392770 1.006753 0
M  V30 8 N 1.074014 -0.852379 -0.139642 0
M  V30 9 C 0.941893 -0.109924 -1.267679 0
M  V30 10 O 1.161468 -0.641424 -2.386607 0
M  V30 11 C 0.537604 1.287103 -0.980145 0
M  V30 12 C 0.300667 2.179189 -1.891669 0
M  V30 13 C -0.085964 3.497827 -1.398907 0
M  V30 14 C 0.441489 4.292267 -0.411654 0
M  V30 15 C -0.249151 5.472795 -0.241035 0
M  V30 16 C -1.273128 5.391629 -1.194539 0
M  V30 17 N -1.145138 4.210102 -1.860014 0
M  V30 18 C -2.037945 3.718941 -2.929364 0
M  V30 19 S 0.445130 1.364975 0.809289 0
M  V30 20 C 1.011941 -3.167314 3.505933 0
M  V30 21 C 1.376027 -2.560024 4.803812 0
M  V30 22 C 0.863748 -4.533020 3.628365 0
M  V30 23 H -0.468980 -7.158536 1.937146 0
M  V30 24 H 1.338086 -7.312608 2.345106 0
M  V30 25 H 0.120404 -7.157047 3.606329 0
M  V30 26 H 0.050882 -5.316098 0.465787 0
M  V30 27 H 0.302198 -2.961303 0.246973 0
M  V30 28 H 1.258233 -0.586713 3.038855 0
M  V30 29 H 0.393959 1.938006 -2.939150 0
M  V30 30 H 1.320325 4.002650 0.174506 0
M  V30 31 H -0.035040 6.265310 0.467026 0
M  V30 32 H -2.039161 6.159565 -1.360290 0
M  V30 33 H -2.667840 2.882816 -2.513636 0
M  V30 34 H -2.702520 4.522218 -3.256354 0
M  V30 35 H -1.449703 3.297048 -3.760749 0
M  V30 36 H 1.547949 -1.474034 4.765952 0
M  V30 37 H 2.325646 -3.020473 5.163256 0
M  V30 38 H 0.569356 -2.692870 5.566099 0
M  V30 39 H 0.992873 -5.129597 4.546991 0
M  V30 END ATOM
M  V30 BEGIN BOND
M  V30 1 1 1 2
M  V30 2 2 2 3
M  V30 3 1 3 4
M  V30 4 2 4 5
M  V30 5 1 5 6
M  V30 6 1 6 7
M  V30 7 2 7 8
M  V30 8 1 8 9
M  V30 9 2 9 10
M  V30 10 1 9 11
M  V30 11 2 11 12
M  V30 12 1 12 13
M  V30 13 2 13 14
M  V30 14 1 14 15
M  V30 15 2 15 16
M  V30 16 1 16 17
M  V30 17 1 17 18
M  V30 18 1 11 19
M  V30 19 1 5 20
M  V30 20 1 20 21
M  V30 21 2 20 22
M  V30 22 1 22 2
M  V30 23 1 19 7
M  V30 24 1 17 13
M  V30 25 1 1 23
M  V30 26 1 1 24
M  V30 27 1 1 25
M  V30 28 1 3 26
M  V30 29 1 4 27
M  V30 30 1 6 28
M  V30 31 1 12 29
M  V30 32 1 14 30
M  V30 33 1 15 31
M  V30 34 1 16 32
M  V30 35 1 18 33
M  V30 36 1 18 34
M  V30 37 1 18 35
M  V30 38 1 21 36
M  V30 39 1 21 37
M  V30 40 1 21 38
M  V30 41 1 22 39
M  V30 END BOND
M  V30 END CTAB
M  END
>  <Dataset>  (283) 
ChEMBL_Kinases

>  <Ligand_Instance>  (283) 
nan

>  <PDB_ID>  (283) 
nan

>  <Standardized_SMILES>  (283) 
Cc1ccc(NC2=NC(=O)/C(=C/c3cccn3C)S2)c(C)c1

>  <Name>  (283) 
nan

>  <Pocket>  (283) 
nan

>  <ATP_Site>  (283) 
nan

>  <Peripheral>  (283) 
nan

>  <Num_H_Atoms_ProtBoundConf>  (283) 
nan

>  <Num_Resolved_Atoms>  (283) 
nan

>  <Num_Not_Resolved_Atoms>  (283) 
nan

$$$$
CHEMBL1450680
     RDKit          3D

  0  0  0  0  0  0  0  0  0  0999 V3000
M  V30 BEGIN CTAB
M  V30 COUNTS 37 40 0 0 0
M  V30 BEGIN ATOM
M  V30 1 C 0.588483 -3.357311 5.450226 0
M  V30 2 C 0.568970 -3.075891 3.999700 0
M  V30 3 C 0.770526 -3.954122 2.964762 0
M  V30 4 C 0.741752 -3.641136 1.631870 0
M  V30 5 C 0.984661 -4.733593 0.654863 0
M  V30 6 C 0.494386 -2.350437 1.221833 0
M  V30 7 C 0.297564 -1.500814 2.295310 0
M  V30 8 N 0.327721 -1.816325 3.593624 0
M  V30 9 S -0.012909 0.158922 1.467586 0
M  V30 10 C 0.155287 -0.475667 -0.171115 0
M  V30 11 C 0.048791 0.208295 -1.359098 0
M  V30 12 N -0.229701 1.599254 -1.328363 0
M  V30 13 C -1.410730 2.227144 -0.746293 0
M  V30 14 C -0.991411 3.249314 0.275523 0
M  V30 15 O 0.393112 3.446963 0.198431 0
M  V30 16 C 0.720702 3.779716 -1.130155 0
M  V30 17 C 0.751188 2.494644 -1.933172 0
M  V30 18 N 0.214839 -0.475961 -2.521117 0
M  V30 19 C 0.472690 -1.786245 -2.371736 0
M  V30 20 N 0.570828 -2.424466 -1.214304 0
M  V30 21 C 0.417664 -1.807528 -0.030113 0
M  V30 22 H 0.321065 -4.412652 5.654704 0
M  V30 23 H -0.179152 -2.735996 5.982143 0
M  V30 24 H 1.614121 -3.148773 5.850602 0
M  V30 25 H 0.970629 -4.993763 3.261544 0
M  V30 26 H 0.303703 -4.592257 -0.232624 0
M  V30 27 H 0.882053 -5.711537 1.120941 0
M  V30 28 H 2.011999 -4.636660 0.204477 0
M  V30 29 H -2.099869 1.459413 -0.354589 0
M  V30 30 H -1.882838 2.784984 -1.597205 0
M  V30 31 H -1.448521 4.253161 0.102215 0
M  V30 32 H -1.243603 2.903361 1.298709 0
M  V30 33 H -0.033391 4.497088 -1.474004 0
M  V30 34 H 1.717938 4.249151 -1.188097 0
M  V30 35 H 1.777019 2.071669 -1.906125 0
M  V30 36 H 0.392436 2.699683 -2.956058 0
M  V30 37 H 0.619644 -2.408054 -3.271924 0
M  V30 END ATOM
M  V30 BEGIN BOND
M  V30 1 1 1 2
M  V30 2 2 2 3
M  V30 3 1 3 4
M  V30 4 1 4 5
M  V30 5 2 4 6
M  V30 6 1 6 7
M  V30 7 2 7 8
M  V30 8 1 7 9
M  V30 9 1 9 10
M  V30 10 2 10 11
M  V30 11 1 11 12
M  V30 12 1 12 13
M  V30 13 1 13 14
M  V30 14 1 14 15
M  V30 15 1 15 16
M  V30 16 1 16 17
M  V30 17 1 11 18
M  V30 18 2 18 19
M  V30 19 1 19 20
M  V30 20 2 20 21
M  V30 21 1 8 2
M  V30 22 1 21 10
M  V30 23 1 21 6
M  V30 24 1 17 12
M  V30 25 1 1 22
M  V30 26 1 1 23
M  V30 27 1 1 24
M  V30 28 1 3 25
M  V30 29 1 5 26
M  V30 30 1 5 27
M  V30 31 1 5 28
M  V30 32 1 13 29
M  V30 33 1 13 30
M  V30 34 1 14 31
M  V30 35 1 14 32
M  V30 36 1 16 33
M  V30 37 1 16 34
M  V30 38 1 17 35
M  V30 39 1 17 36
M  V30 40 1 19 37
M  V30 END BOND
M  V30 END CTAB
M  END
>  <Dataset>  (284) 
ChEMBL_Kinases

>  <Ligand_Instance>  (284) 
nan

>  <PDB_ID>  (284) 
nan

>  <Standardized_SMILES>  (284) 
Cc1cc(C)c2c(n1)sc1c(N3CCOCC3)ncnc12

>  <Name>  (284) 
nan

>  <Pocket>  (284) 
nan

>  <ATP_Site>  (284) 
nan

>  <Peripheral>  (284) 
nan

>  <Num_H_Atoms_ProtBoundConf>  (284) 
nan

>  <Num_Resolved_Atoms>  (284) 
nan

>  <Num_Not_Resolved_Atoms>  (284) 
nan

$$$$
CHEMBL1450459
     RDKit          3D

  0  0  0  0  0  0  0  0  0  0999 V3000
M  V30 BEGIN CTAB
M  V30 COUNTS 45 46 0 0 0
M  V30 BEGIN ATOM
M  V30 1 C 1.204955 -3.960016 0.330380 0
M  V30 2 C 2.545893 -3.805900 0.898499 0
M  V30 3 C 3.234600 -4.877662 1.424308 0
M  V30 4 C 4.495912 -4.725276 1.955771 0
M  V30 5 C 5.069165 -3.472435 1.955937 0
M  V30 6 C 4.355606 -2.433497 1.425742 0
M  V30 7 C 3.070574 -2.558151 0.877980 0
M  V30 8 C 2.551406 -1.294744 0.384078 0
M  V30 9 O 2.878171 -0.175774 0.925615 0
M  V30 10 N 1.663017 -1.006225 -0.689789 0
M  V30 11 C 1.317070 0.335164 -0.973778 0
M  V30 12 C 2.213834 0.863810 -1.896540 0
M  V30 13 C 2.111296 2.179357 -2.360923 0
M  V30 14 C 1.069060 2.973995 -1.872228 0
M  V30 15 C 0.183140 2.439740 -0.955633 0
M  V30 16 C 0.305984 1.145679 -0.515928 0
M  V30 17 C -0.570162 0.519238 0.435298 0
M  V30 18 O -0.500089 -0.650132 0.870453 0
M  V30 19 N -1.659031 1.204646 1.004053 0
M  V30 20 C -2.486556 0.502895 1.948740 0
M  V30 21 C -3.600253 1.391292 2.454329 0
M  V30 22 C -4.499496 1.876560 1.370395 0
M  V30 23 C -4.429170 0.702027 3.514827 0
M  V30 24 H 0.771926 -4.886683 0.820965 0
M  V30 25 H 0.500319 -3.161457 0.629854 0
M  V30 26 H 1.185161 -4.209021 -0.750176 0
M  V30 27 H 2.721981 -5.824438 1.388801 0
M  V30 28 H 4.993318 -5.601733 2.356301 0
M  V30 29 H 6.059104 -3.376174 2.377773 0
M  V30 30 H 4.904956 -1.480720 1.476477 0
M  V30 31 H 1.328320 -1.875366 -1.204878 0
M  V30 32 H 3.075655 0.364286 -2.366178 0
M  V30 33 H 2.769268 2.637620 -3.067125 0
M  V30 34 H 0.912128 3.995608 -2.172271 0
M  V30 35 H -0.624039 3.046713 -0.573721 0
M  V30 36 H -1.899481 2.213444 0.769974 0
M  V30 37 H -2.984796 -0.335992 1.379333 0
M  V30 38 H -1.944941 0.005552 2.765718 0
M  V30 39 H -3.127250 2.278776 2.952813 0
M  V30 40 H -5.477865 1.332475 1.376644 0
M  V30 41 H -4.099539 1.733600 0.350886 0
M  V30 42 H -4.695479 2.964237 1.464693 0
M  V30 43 H -3.948813 0.711353 4.504640 0
M  V30 44 H -5.411015 1.259366 3.530278 0
M  V30 45 H -4.705013 -0.339044 3.197758 0
M  V30 END ATOM
M  V30 BEGIN BOND
M  V30 1 1 1 2
M  V30 2 2 2 3
M  V30 3 1 3 4
M  V30 4 2 4 5
M  V30 5 1 5 6
M  V30 6 2 6 7
M  V30 7 1 7 8
M  V30 8 2 8 9
M  V30 9 1 8 10
M  V30 10 1 10 11
M  V30 11 2 11 12
M  V30 12 1 12 13
M  V30 13 2 13 14
M  V30 14 1 14 15
M  V30 15 2 15 16
M  V30 16 1 16 17
M  V30 17 2 17 18
M  V30 18 1 17 19
M  V30 19 1 19 20
M  V30 20 1 20 21
M  V30 21 1 21 22
M  V30 22 1 21 23
M  V30 23 1 7 2
M  V30 24 1 16 11
M  V30 25 1 1 24
M  V30 26 1 1 25
M  V30 27 1 1 26
M  V30 28 1 3 27
M  V30 29 1 4 28
M  V30 30 1 5 29
M  V30 31 1 6 30
M  V30 32 1 10 31
M  V30 33 1 12 32
M  V30 34 1 13 33
M  V30 35 1 14 34
M  V30 36 1 15 35
M  V30 37 1 19 36
M  V30 38 1 20 37
M  V30 39 1 20 38
M  V30 40 1 21 39
M  V30 41 1 22 40
M  V30 42 1 22 41
M  V30 43 1 22 42
M  V30 44 1 23 43
M  V30 45 1 23 44
M  V30 46 1 23 45
M  V30 END BOND
M  V30 END CTAB
M  END
>  <Dataset>  (285) 
ChEMBL_Kinases

>  <Ligand_Instance>  (285) 
nan

>  <PDB_ID>  (285) 
nan

>  <Standardized_SMILES>  (285) 
Cc1ccccc1C(=O)Nc1ccccc1C(=O)NCC(C)C

>  <Name>  (285) 
nan

>  <Pocket>  (285) 
nan

>  <ATP_Site>  (285) 
nan

>  <Peripheral>  (285) 
nan

>  <Num_H_Atoms_ProtBoundConf>  (285) 
nan

>  <Num_Resolved_Atoms>  (285) 
nan

>  <Num_Not_Resolved_Atoms>  (285) 
nan

$$$$
CHEMBL1450426
     RDKit          3D

  0  0  0  0  0  0  0  0  0  0999 V3000
M  V30 BEGIN CTAB
M  V30 COUNTS 43 45 0 0 0
M  V30 BEGIN ATOM
M  V30 1 C -1.171372 -5.119801 -0.273714 0
M  V30 2 C -1.418653 -3.827049 0.412268 0
M  V30 3 C -1.988268 -3.955605 1.803454 0
M  V30 4 N -0.263751 -2.951791 0.474756 0
M  V30 5 C -0.319140 -1.612455 0.334968 0
M  V30 6 C 0.922212 -1.028144 0.438265 0
M  V30 7 C 1.321323 0.373235 0.350492 0
M  V30 8 C 0.829469 1.297331 -0.459062 0
M  V30 9 C -0.212098 0.906787 -1.361903 0
M  V30 10 N -1.040203 0.579696 -2.091702 0
M  V30 11 S 1.474711 2.943276 -0.381349 0
M  V30 12 O 1.246481 3.563326 -1.735295 0
M  V30 13 O 2.900748 2.949027 0.037828 0
M  V30 14 C 0.510740 3.841953 0.796844 0
M  V30 15 C 0.973555 3.771748 2.113150 0
M  V30 16 C 0.303057 4.433877 3.130009 0
M  V30 17 C -0.826401 5.169834 2.864756 0
M  V30 18 C -1.269057 5.228219 1.560798 0
M  V30 19 C -0.622360 4.580930 0.533797 0
M  V30 20 C 1.799281 -2.070497 0.655523 0
M  V30 21 C 3.179870 -2.181744 0.845241 0
M  V30 22 C 3.816021 -3.386659 1.046903 0
M  V30 23 C 3.038140 -4.505837 1.056762 0
M  V30 24 C 1.682946 -4.425806 0.873471 0
M  V30 25 C 1.043483 -3.223955 0.671677 0
M  V30 26 H -2.049202 -5.416843 -0.923987 0
M  V30 27 H -0.318312 -5.107142 -0.980140 0
M  V30 28 H -1.124806 -5.950569 0.474050 0
M  V30 29 H -2.222042 -3.300650 -0.185090 0
M  V30 30 H -1.734452 -3.058149 2.417799 0
M  V30 31 H -3.117888 -3.943560 1.778377 0
M  V30 32 H -1.648627 -4.832521 2.361383 0
M  V30 33 H -1.251312 -1.056753 0.160231 0
M  V30 34 H 2.121401 0.695285 1.036551 0
M  V30 35 H 1.848302 3.218762 2.404825 0
M  V30 36 H 0.660941 4.382039 4.166361 0
M  V30 37 H -1.394085 5.713505 3.634735 0
M  V30 38 H -2.140174 5.772338 1.232237 0
M  V30 39 H -0.923569 4.589511 -0.513596 0
M  V30 40 H 3.747855 -1.259436 0.827299 0
M  V30 41 H 4.903329 -3.385244 1.187075 0
M  V30 42 H 3.561899 -5.449020 1.216707 0
M  V30 43 H 1.144976 -5.340830 0.896035 0
M  V30 END ATOM
M  V30 BEGIN BOND
M  V30 1 1 1 2
M  V30 2 1 2 3
M  V30 3 1 2 4
M  V30 4 1 4 5
M  V30 5 2 5 6
M  V30 6 1 6 7
M  V30 7 2 7 8
M  V30 8 1 8 9
M  V30 9 3 9 10
M  V30 10 1 8 11
M  V30 11 2 11 12
M  V30 12 2 11 13
M  V30 13 1 11 14
M  V30 14 2 14 15
M  V30 15 1 15 16
M  V30 16 2 16 17
M  V30 17 1 17 18
M  V30 18 2 18 19
M  V30 19 1 6 20
M  V30 20 2 20 21
M  V30 21 1 21 22
M  V30 22 2 22 23
M  V30 23 1 23 24
M  V30 24 2 24 25
M  V30 25 1 25 4
M  V30 26 1 19 14
M  V30 27 1 25 20
M  V30 28 1 1 26
M  V30 29 1 1 27
M  V30 30 1 1 28
M  V30 31 1 2 29
M  V30 32 1 3 30
M  V30 33 1 3 31
M  V30 34 1 3 32
M  V30 35 1 5 33
M  V30 36 1 7 34
M  V30 37 1 15 35
M  V30 38 1 16 36
M  V30 39 1 17 37
M  V30 40 1 18 38
M  V30 41 1 19 39
M  V30 42 1 21 40
M  V30 43 1 22 41
M  V30 44 1 23 42
M  V30 45 1 24 43
M  V30 END BOND
M  V30 END CTAB
M  END
>  <Dataset>  (286) 
ChEMBL_Kinases

>  <Ligand_Instance>  (286) 
nan

>  <PDB_ID>  (286) 
nan

>  <Standardized_SMILES>  (286) 
CC(C)n1cc(/C=C(\C#N)S(=O)(=O)c2ccccc2)c2ccccc21

>  <Name>  (286) 
nan

>  <Pocket>  (286) 
nan

>  <ATP_Site>  (286) 
nan

>  <Peripheral>  (286) 
nan

>  <Num_H_Atoms_ProtBoundConf>  (286) 
nan

>  <Num_Resolved_Atoms>  (286) 
nan

>  <Num_Not_Resolved_Atoms>  (286) 
nan

$$$$
CHEMBL1450413
     RDKit          3D

  0  0  0  0  0  0  0  0  0  0999 V3000
M  V30 BEGIN CTAB
M  V30 COUNTS 77 81 0 0 0
M  V30 BEGIN ATOM
M  V30 1 C 7.510998 -3.045378 1.438419 0
M  V30 2 N 6.558350 -1.958997 1.518344 0
M  V30 3 C 5.453351 -1.947003 0.634568 0
M  V30 4 O 5.470202 -2.952011 -0.138456 0
M  V30 5 C 4.309907 -0.995728 0.456220 0 CFG=2
M  V30 6 C 4.286719 0.205397 1.342220 0
M  V30 7 C 3.013629 -1.756688 0.182319 0
M  V30 8 C 3.728028 -0.898718 -0.878964 0 CFG=1
M  V30 9 C 2.887186 0.220219 -1.388533 0 CFG=2
M  V30 10 N 1.691730 0.358734 -0.599680 0
M  V30 11 C 1.183231 1.358465 0.239422 0
M  V30 12 O 1.761514 2.449009 0.474417 0
M  V30 13 C -0.090056 1.301529 0.974172 0 CFG=2
M  V30 14 C -0.514479 2.677350 1.490977 0
M  V30 15 C -0.365847 0.193897 1.932092 0
M  V30 16 C -1.067670 0.280514 0.618779 0 CFG=1
M  V30 17 C -2.554601 0.562875 0.595063 0 CFG=2
M  V30 18 N -3.203106 -0.696255 0.195249 0
M  V30 19 C -4.117800 -1.402648 1.011568 0
M  V30 20 O -4.321074 -0.850710 2.103110 0
M  V30 21 O -4.703951 -2.577914 0.610978 0
M  V30 22 C -5.619172 -3.336694 1.373046 0
M  V30 23 C -5.039748 -3.800787 2.658791 0
M  V30 24 C -4.346954 -5.010418 2.537563 0
M  V30 25 C -3.734086 -5.623893 3.617765 0
M  V30 26 C -3.796162 -5.038181 4.869407 0
M  V30 27 C -4.481481 -3.848168 4.972823 0
M  V30 28 C -5.090141 -3.233715 3.914714 0
M  V30 29 C -2.869388 1.577946 -0.430206 0
M  V30 30 C -3.306241 2.844442 -0.040221 0
M  V30 31 C -3.643228 3.900681 -0.858914 0
M  V30 32 C -3.530085 3.661696 -2.234044 0
M  V30 33 C -3.099512 2.417671 -2.681641 0
M  V30 34 C -2.774054 1.391624 -1.790882 0
M  V30 35 C 2.606495 0.111752 -2.843931 0
M  V30 36 C 1.601266 -0.752928 -3.239686 0
M  V30 37 C 1.282388 -0.903240 -4.577580 0
M  V30 38 C 1.948090 -0.203072 -5.561394 0
M  V30 39 C 2.952658 0.659939 -5.155457 0
M  V30 40 C 3.266947 0.807319 -3.831056 0
M  V30 41 H 6.991323 -3.929061 1.883271 0
M  V30 42 H 7.851667 -3.231427 0.398631 0
M  V30 43 H 8.333629 -2.782937 2.131707 0
M  V30 44 H 6.561168 -1.123454 2.175577 0
M  V30 45 H 4.145669 1.155468 0.759989 0
M  V30 46 H 5.244328 0.349495 1.880776 0
M  V30 47 H 3.471108 0.060182 2.104678 0
M  V30 48 H 2.182346 -1.348722 0.754201 0
M  V30 49 H 3.024184 -2.846207 0.059034 0
M  V30 50 H 4.154600 -1.531916 -1.710573 0
M  V30 51 H 3.521550 1.151245 -1.276469 0
M  V30 52 H 1.146362 -0.516730 -0.749570 0
M  V30 53 H 0.346430 2.999863 2.149967 0
M  V30 54 H -0.562563 3.439048 0.699434 0
M  V30 55 H -1.368663 2.612554 2.159379 0
M  V30 56 H -0.951198 0.402598 2.870306 0
M  V30 57 H 0.359394 -0.621203 2.117676 0
M  V30 58 H -0.756096 -0.508685 -0.095686 0
M  V30 59 H -2.915871 0.879979 1.585116 0
M  V30 60 H -2.939427 -1.056872 -0.764947 0
M  V30 61 H -6.029406 -4.166260 0.801085 0
M  V30 62 H -6.441568 -2.619719 1.671127 0
M  V30 63 H -4.232820 -5.558705 1.613446 0
M  V30 64 H -3.196131 -6.558450 3.532224 0
M  V30 65 H -3.314245 -5.525808 5.707594 0
M  V30 66 H -4.566076 -3.345749 5.909156 0
M  V30 67 H -5.636008 -2.317637 3.952758 0
M  V30 68 H -3.406271 3.054548 1.010842 0
M  V30 69 H -3.968701 4.838513 -0.477969 0
M  V30 70 H -3.784720 4.463694 -2.908900 0
M  V30 71 H -3.008754 2.221472 -3.752316 0
M  V30 72 H -2.434426 0.411225 -2.125451 0
M  V30 73 H 0.992669 -1.368420 -2.592203 0
M  V30 74 H 0.490036 -1.581380 -4.929341 0
M  V30 75 H 1.741291 -0.279958 -6.635813 0
M  V30 76 H 3.529507 1.247987 -5.830095 0
M  V30 77 H 4.043570 1.470529 -3.484344 0
M  V30 END ATOM
M  V30 BEGIN BOND
M  V30 1 1 1 2
M  V30 2 1 2 3
M  V30 3 2 3 4
M  V30 4 1 3 5
M  V30 5 1 5 6 CFG=1
M  V30 6 1 5 7
M  V30 7 1 7 8
M  V30 8 1 8 9
M  V30 9 1 9 10
M  V30 10 1 10 11
M  V30 11 2 11 12
M  V30 12 1 11 13
M  V30 13 1 13 14 CFG=1
M  V30 14 1 13 15
M  V30 15 1 15 16
M  V30 16 1 16 17
M  V30 17 1 17 18
M  V30 18 1 18 19
M  V30 19 2 19 20
M  V30 20 1 19 21
M  V30 21 1 21 22
M  V30 22 1 22 23
M  V30 23 2 23 24
M  V30 24 1 24 25
M  V30 25 2 25 26
M  V30 26 1 26 27
M  V30 27 2 27 28
M  V30 28 1 17 29
M  V30 29 2 29 30
M  V30 30 1 30 31
M  V30 31 2 31 32
M  V30 32 1 32 33
M  V30 33 2 33 34
M  V30 34 1 9 35
M  V30 35 2 35 36
M  V30 36 1 36 37
M  V30 37 2 37 38
M  V30 38 1 38 39
M  V30 39 2 39 40
M  V30 40 1 8 5
M  V30 41 1 16 13
M  V30 42 1 28 23
M  V30 43 1 34 29
M  V30 44 1 40 35
M  V30 45 1 1 41
M  V30 46 1 1 42
M  V30 47 1 1 43
M  V30 48 1 2 44
M  V30 49 1 6 45
M  V30 50 1 6 46
M  V30 51 1 6 47
M  V30 52 1 7 48
M  V30 53 1 7 49
M  V30 54 1 8 50 CFG=3
M  V30 55 1 9 51 CFG=3
M  V30 56 1 10 52
M  V30 57 1 14 53
M  V30 58 1 14 54
M  V30 59 1 14 55
M  V30 60 1 15 56
M  V30 61 1 15 57
M  V30 62 1 16 58 CFG=3
M  V30 63 1 17 59 CFG=1
M  V30 64 1 18 60
M  V30 65 1 22 61
M  V30 66 1 22 62
M  V30 67 1 24 63
M  V30 68 1 25 64
M  V30 69 1 26 65
M  V30 70 1 27 66
M  V30 71 1 28 67
M  V30 72 1 30 68
M  V30 73 1 31 69
M  V30 74 1 32 70
M  V30 75 1 33 71
M  V30 76 1 34 72
M  V30 77 1 36 73
M  V30 78 1 37 74
M  V30 79 1 38 75
M  V30 80 1 39 76
M  V30 81 1 40 77
M  V30 END BOND
M  V30 END CTAB
M  END
>  <Dataset>  (287) 
ChEMBL_Kinases

>  <Ligand_Instance>  (287) 
nan

>  <PDB_ID>  (287) 
nan

>  <Standardized_SMILES>  (287) 
CNC(=O)[C@]1(C)C[C@H]1[C@H](NC(=O)[C@]1(C)C[C@H]1[C@H](NC(=O)OCc1ccccc1)c1ccccc1)c1ccccc1

>  <Name>  (287) 
nan

>  <Pocket>  (287) 
nan

>  <ATP_Site>  (287) 
nan

>  <Peripheral>  (287) 
nan

>  <Num_H_Atoms_ProtBoundConf>  (287) 
nan

>  <Num_Resolved_Atoms>  (287) 
nan

>  <Num_Not_Resolved_Atoms>  (287) 
nan

$$$$
CHEMBL1450380
     RDKit          3D

  0  0  0  0  0  0  0  0  0  0999 V3000
M  V30 BEGIN CTAB
M  V30 COUNTS 34 36 0 0 0
M  V30 BEGIN ATOM
M  V30 1 C -2.163383 -2.172896 4.145685 0
M  V30 2 C -1.383528 -2.370864 2.889450 0
M  V30 3 C -0.240990 -3.134398 2.990762 0
M  V30 4 C 0.522287 -3.353312 1.863458 0
M  V30 5 C 0.126618 -2.799615 0.640944 0
M  V30 6 C 1.005758 -3.091970 -0.495221 0
M  V30 7 N 2.055495 -2.100789 -0.660114 0
M  V30 8 C 1.566271 -0.792192 -0.908414 0
M  V30 9 O 1.224907 0.199498 -0.086823 0
M  V30 10 C 0.827233 1.223118 -0.802516 0
M  V30 11 C 0.368913 2.513294 -0.212623 0
M  V30 12 C -0.033379 3.570911 -0.908985 0
M  V30 13 C -0.433249 4.700110 -0.251420 0
M  V30 14 C -0.376729 4.630378 1.201231 0
M  V30 15 S 0.274918 2.868476 1.462683 0
M  V30 16 N 0.906126 0.908287 -2.083418 0
M  V30 17 C 1.371895 -0.368156 -2.228549 0
M  V30 18 C 1.603824 -1.093868 -3.451669 0
M  V30 19 N 1.803904 -1.666563 -4.434768 0
M  V30 20 C -1.028181 -2.045521 0.610716 0
M  V30 21 C -1.832169 -1.791633 1.702339 0
M  V30 22 H -3.257827 -2.125166 3.978128 0
M  V30 23 H -1.929940 -2.959979 4.891039 0
M  V30 24 H -1.884798 -1.198542 4.614269 0
M  V30 25 H 0.086871 -3.573192 3.921143 0
M  V30 26 H 1.411910 -3.950095 1.950642 0
M  V30 27 H 0.376865 -3.165904 -1.416992 0
M  V30 28 H 1.501491 -4.074141 -0.373244 0
M  V30 29 H 3.092477 -2.221430 -0.620909 0
M  V30 30 H -0.063917 3.591836 -1.993219 0
M  V30 31 H -0.785626 5.638079 -0.659791 0
M  V30 32 H -0.677277 5.491133 1.885322 0
M  V30 33 H -1.313144 -1.628726 -0.343966 0
M  V30 34 H -2.725234 -1.199654 1.643072 0
M  V30 END ATOM
M  V30 BEGIN BOND
M  V30 1 1 1 2
M  V30 2 2 2 3
M  V30 3 1 3 4
M  V30 4 2 4 5
M  V30 5 1 5 6
M  V30 6 1 6 7
M  V30 7 1 7 8
M  V30 8 1 8 9
M  V30 9 1 9 10
M  V30 10 1 10 11
M  V30 11 2 11 12
M  V30 12 1 12 13
M  V30 13 2 13 14
M  V30 14 1 14 15
M  V30 15 2 10 16
M  V30 16 1 16 17
M  V30 17 1 17 18
M  V30 18 3 18 19
M  V30 19 1 5 20
M  V30 20 2 20 21
M  V30 21 1 21 2
M  V30 22 2 17 8
M  V30 23 1 15 11
M  V30 24 1 1 22
M  V30 25 1 1 23
M  V30 26 1 1 24
M  V30 27 1 3 25
M  V30 28 1 4 26
M  V30 29 1 6 27
M  V30 30 1 6 28
M  V30 31 1 7 29
M  V30 32 1 12 30
M  V30 33 1 13 31
M  V30 34 1 14 32
M  V30 35 1 20 33
M  V30 36 1 21 34
M  V30 END BOND
M  V30 END CTAB
M  END
>  <Dataset>  (288) 
ChEMBL_Kinases

>  <Ligand_Instance>  (288) 
nan

>  <PDB_ID>  (288) 
nan

>  <Standardized_SMILES>  (288) 
Cc1ccc(CNc2oc(-c3cccs3)nc2C#N)cc1

>  <Name>  (288) 
nan

>  <Pocket>  (288) 
nan

>  <ATP_Site>  (288) 
nan

>  <Peripheral>  (288) 
nan

>  <Num_H_Atoms_ProtBoundConf>  (288) 
nan

>  <Num_Resolved_Atoms>  (288) 
nan

>  <Num_Not_Resolved_Atoms>  (288) 
nan

$$$$
CHEMBL1450360
     RDKit          3D

  0  0  0  0  0  0  0  0  0  0999 V3000
M  V30 BEGIN CTAB
M  V30 COUNTS 29 32 0 0 0
M  V30 BEGIN ATOM
M  V30 1 C -1.197746 -4.139795 3.959199 0
M  V30 2 C -0.461576 -3.534229 4.955295 0
M  V30 3 C 0.221731 -2.393527 4.588683 0
M  V30 4 C 0.206418 -1.851546 3.330349 0
M  V30 5 C -0.523604 -2.448551 2.334996 0
M  V30 6 C -1.210870 -3.590937 2.692899 0
M  V30 7 N -0.653685 -2.032701 0.993523 0
M  V30 8 C 0.016215 -0.872703 0.542703 0
M  V30 9 C -0.146081 -0.510069 -0.780839 0
M  V30 10 C 0.434556 0.595194 -1.390665 0
M  V30 11 C 0.224602 0.884869 -2.718867 0
M  V30 12 C 0.843856 2.015545 -3.275236 0
M  V30 13 C 1.633834 2.772985 -2.439375 0
M  V30 14 C 1.880107 2.532178 -1.104007 0
M  V30 15 C 1.242420 1.408436 -0.625415 0
M  V30 16 C 1.418615 1.065900 0.697847 0
M  V30 17 C 0.832505 -0.020964 1.247027 0
M  V30 18 S 1.126126 -0.374265 2.968348 0
M  V30 19 H -1.755046 -5.037985 4.188504 0
M  V30 20 H -0.391962 -3.891300 5.972838 0
M  V30 21 H 0.816724 -1.892248 5.363569 0
M  V30 22 H -1.825149 -4.141269 1.962977 0
M  V30 23 H -1.230409 -2.560622 0.334672 0
M  V30 24 H -0.771406 -1.104382 -1.449749 0
M  V30 25 H -0.397812 0.258977 -3.314186 0
M  V30 26 H 0.708994 2.285772 -4.318475 0
M  V30 27 H 2.112804 3.658009 -2.887482 0
M  V30 28 H 2.507189 3.157880 -0.494457 0
M  V30 29 H 2.061544 1.708951 1.314021 0
M  V30 END ATOM
M  V30 BEGIN BOND
M  V30 1 2 1 2
M  V30 2 1 2 3
M  V30 3 2 3 4
M  V30 4 1 4 5
M  V30 5 2 5 6
M  V30 6 1 5 7
M  V30 7 1 7 8
M  V30 8 2 8 9
M  V30 9 1 9 10
M  V30 10 2 10 11
M  V30 11 1 11 12
M  V30 12 2 12 13
M  V30 13 1 13 14
M  V30 14 2 14 15
M  V30 15 1 15 16
M  V30 16 2 16 17
M  V30 17 1 17 18
M  V30 18 1 6 1
M  V30 19 1 17 8
M  V30 20 1 18 4
M  V30 21 1 15 10
M  V30 22 1 1 19
M  V30 23 1 2 20
M  V30 24 1 3 21
M  V30 25 1 6 22
M  V30 26 1 7 23
M  V30 27 1 9 24
M  V30 28 1 11 25
M  V30 29 1 12 26
M  V30 30 1 13 27
M  V30 31 1 14 28
M  V30 32 1 16 29
M  V30 END BOND
M  V30 END CTAB
M  END
>  <Dataset>  (289) 
ChEMBL_Kinases

>  <Ligand_Instance>  (289) 
nan

>  <PDB_ID>  (289) 
nan

>  <Standardized_SMILES>  (289) 
c1ccc2c(c1)Nc1cc3ccccc3cc1S2

>  <Name>  (289) 
nan

>  <Pocket>  (289) 
nan

>  <ATP_Site>  (289) 
nan

>  <Peripheral>  (289) 
nan

>  <Num_H_Atoms_ProtBoundConf>  (289) 
nan

>  <Num_Resolved_Atoms>  (289) 
nan

>  <Num_Not_Resolved_Atoms>  (289) 
nan

$$$$
CHEMBL1450322
     RDKit          3D

  0  0  0  0  0  0  0  0  0  0999 V3000
M  V30 BEGIN CTAB
M  V30 COUNTS 62 65 0 0 0
M  V30 BEGIN ATOM
M  V30 1 C 5.896567 -0.805688 6.461946 0
M  V30 2 C 4.629083 -0.460172 5.776596 0
M  V30 3 C 3.488172 -1.245654 5.788223 0
M  V30 4 C 2.345903 -0.860510 5.129459 0
M  V30 5 C 2.268489 0.336898 4.415118 0
M  V30 6 N 1.018355 0.554395 3.812410 0
M  V30 7 C 0.995114 0.012305 2.493809 0
M  V30 8 O 2.020622 -0.575461 2.007096 0
M  V30 9 C -0.108719 0.026418 1.532345 0
M  V30 10 C -0.016083 0.752929 0.366800 0
M  V30 11 C -1.201998 0.575363 -0.347275 0
M  V30 12 C -1.447160 1.226795 -1.617508 0
M  V30 13 C -1.966801 0.798425 -2.809248 0
M  V30 14 C -2.108049 1.593824 -3.909199 0
M  V30 15 C -1.726642 2.940850 -3.913987 0
M  V30 16 C -1.196843 3.416367 -2.730918 0
M  V30 17 C -1.074918 2.584592 -1.657882 0
M  V30 18 N -2.018442 -0.240066 0.345241 0
M  V30 19 C -3.265530 -0.807012 0.133399 0
M  V30 20 C -3.649589 -2.093037 -0.335292 0
M  V30 21 C -3.280254 -2.634794 -1.678554 0
M  V30 22 N -2.022405 -2.880009 -2.095710 0
M  V30 23 C -1.876158 -3.397620 -3.422653 0
M  V30 24 C -0.548930 -2.938357 -4.029122 0
M  V30 25 O 0.561236 -3.285687 -3.338043 0
M  V30 26 C 0.335686 -3.480816 -2.011847 0
M  V30 27 C -0.791658 -2.518332 -1.579378 0
M  V30 28 C -1.348342 -0.575432 1.497763 0
M  V30 29 C -1.769382 -1.433240 2.624815 0
M  V30 30 C 3.418282 1.119425 4.408518 0
M  V30 31 C 4.550199 0.709770 5.076957 0
M  V30 32 H 6.141284 -0.049240 7.229441 0
M  V30 33 H 5.868657 -1.812163 6.919189 0
M  V30 34 H 6.751580 -0.822844 5.728389 0
M  V30 35 H 3.589975 -2.171843 6.354084 0
M  V30 36 H 1.533447 -1.552677 5.209555 0
M  V30 37 H 0.128239 1.013851 4.110885 0
M  V30 38 H 0.829617 1.371876 0.038794 0
M  V30 39 H -2.255407 -0.214844 -2.802373 0
M  V30 40 H -2.537044 1.130165 -4.793499 0
M  V30 41 H -1.879174 3.467226 -4.817902 0
M  V30 42 H -0.900384 4.455932 -2.721803 0
M  V30 43 H -0.643271 3.077633 -0.780432 0
M  V30 44 H -3.819583 -0.067074 -0.580772 0
M  V30 45 H -3.873761 -0.574535 1.085613 0
M  V30 46 H -3.618457 -2.928269 0.445731 0
M  V30 47 H -4.807703 -2.071354 -0.414419 0
M  V30 48 H -3.797037 -2.004033 -2.498952 0
M  V30 49 H -3.961266 -3.592035 -1.797418 0
M  V30 50 H -2.652464 -3.006227 -4.146219 0
M  V30 51 H -1.992807 -4.504117 -3.478345 0
M  V30 52 H -0.512444 -3.409940 -5.052960 0
M  V30 53 H -0.680925 -1.848935 -4.209389 0
M  V30 54 H 0.123067 -4.507501 -1.684734 0
M  V30 55 H 1.219117 -3.152899 -1.385651 0
M  V30 56 H -0.698064 -2.521620 -0.466213 0
M  V30 57 H -0.442193 -1.541259 -2.029341 0
M  V30 58 H -2.847916 -1.740709 2.524706 0
M  V30 59 H -1.799968 -0.804927 3.546765 0
M  V30 60 H -1.092745 -2.247346 2.880966 0
M  V30 61 H 3.295369 2.039182 3.839223 0
M  V30 62 H 5.421275 1.351818 5.036908 0
M  V30 END ATOM
M  V30 BEGIN BOND
M  V30 1 1 1 2
M  V30 2 2 2 3
M  V30 3 1 3 4
M  V30 4 2 4 5
M  V30 5 1 5 6
M  V30 6 1 6 7
M  V30 7 2 7 8
M  V30 8 1 7 9
M  V30 9 1 9 10
M  V30 10 2 10 11
M  V30 11 1 11 12
M  V30 12 2 12 13
M  V30 13 1 13 14
M  V30 14 2 14 15
M  V30 15 1 15 16
M  V30 16 2 16 17
M  V30 17 1 11 18
M  V30 18 1 18 19
M  V30 19 1 19 20
M  V30 20 1 20 21
M  V30 21 1 21 22
M  V30 22 1 22 23
M  V30 23 1 23 24
M  V30 24 1 24 25
M  V30 25 1 25 26
M  V30 26 1 26 27
M  V30 27 1 18 28
M  V30 28 1 28 29
M  V30 29 1 5 30
M  V30 30 2 30 31
M  V30 31 1 31 2
M  V30 32 2 28 9
M  V30 33 1 17 12
M  V30 34 1 27 22
M  V30 35 1 1 32
M  V30 36 1 1 33
M  V30 37 1 1 34
M  V30 38 1 3 35
M  V30 39 1 4 36
M  V30 40 1 6 37
M  V30 41 1 10 38
M  V30 42 1 13 39
M  V30 43 1 14 40
M  V30 44 1 15 41
M  V30 45 1 16 42
M  V30 46 1 17 43
M  V30 47 1 19 44
M  V30 48 1 19 45
M  V30 49 1 20 46
M  V30 50 1 20 47
M  V30 51 1 21 48
M  V30 52 1 21 49
M  V30 53 1 23 50
M  V30 54 1 23 51
M  V30 55 1 24 52
M  V30 56 1 24 53
M  V30 57 1 26 54
M  V30 58 1 26 55
M  V30 59 1 27 56
M  V30 60 1 27 57
M  V30 61 1 29 58
M  V30 62 1 29 59
M  V30 63 1 29 60
M  V30 64 1 30 61
M  V30 65 1 31 62
M  V30 END BOND
M  V30 END CTAB
M  END
>  <Dataset>  (290) 
ChEMBL_Kinases

>  <Ligand_Instance>  (290) 
nan

>  <PDB_ID>  (290) 
nan

>  <Standardized_SMILES>  (290) 
Cc1ccc(NC(=O)c2cc(-c3ccccc3)n(CCCN3CCOCC3)c2C)cc1

>  <Name>  (290) 
nan

>  <Pocket>  (290) 
nan

>  <ATP_Site>  (290) 
nan

>  <Peripheral>  (290) 
nan

>  <Num_H_Atoms_ProtBoundConf>  (290) 
nan

>  <Num_Resolved_Atoms>  (290) 
nan

>  <Num_Not_Resolved_Atoms>  (290) 
nan

$$$$
CHEMBL1450221
     RDKit          3D

  0  0  0  0  0  0  0  0  0  0999 V3000
M  V30 BEGIN CTAB
M  V30 COUNTS 45 46 0 0 0
M  V30 BEGIN ATOM
M  V30 1 C -0.054021 -4.007554 1.600195 0
M  V30 2 O 0.967630 -3.381495 0.887297 0
M  V30 3 C 0.482590 -2.527971 -0.080928 0
M  V30 4 C -0.256159 -1.330768 0.403234 0
M  V30 5 N 0.483540 -0.388443 1.175643 0
M  V30 6 C 1.119187 0.672549 0.588146 0
M  V30 7 C 1.260702 1.180258 -0.797814 0
M  V30 8 C 2.474830 0.764001 -1.494783 0
M  V30 9 C 3.693599 1.401305 -1.289884 0
M  V30 10 C 4.899547 1.109130 -1.905390 0
M  V30 11 C 4.816062 0.061289 -2.809531 0
M  V30 12 C 3.651649 -0.614539 -3.063825 0
M  V30 13 C 2.494421 -0.264020 -2.411583 0
M  V30 14 N 1.759729 1.433750 1.531222 0
M  V30 15 N 1.536907 0.864433 2.725807 0
M  V30 16 C 0.780851 -0.204331 2.461653 0
M  V30 17 S 0.263455 -1.237821 3.808180 0
M  V30 18 C -1.323857 -0.728964 4.497364 0
M  V30 19 C -2.452394 -0.906232 3.535111 0
M  V30 20 O -2.892480 -2.109148 3.503052 0
M  V30 21 N -3.002681 0.102902 2.735338 0
M  V30 22 C -2.546106 1.463326 2.757040 0
M  V30 23 C -4.086182 -0.237715 1.838279 0
M  V30 24 H -0.679371 -4.644077 0.919251 0
M  V30 25 H 0.416152 -4.683928 2.332417 0
M  V30 26 H -0.749707 -3.336213 2.104136 0
M  V30 27 H -0.265849 -3.149682 -0.666101 0
M  V30 28 H 1.267769 -2.273717 -0.788128 0
M  V30 29 H -1.186593 -1.622013 0.968217 0
M  V30 30 H -0.661462 -0.810944 -0.499469 0
M  V30 31 H 0.330890 0.865190 -1.378091 0
M  V30 32 H 1.180038 2.300846 -0.825791 0
M  V30 33 H 3.662553 2.212822 -0.559493 0
M  V30 34 H 5.769304 1.678122 -1.657973 0
M  V30 35 H 5.749309 -0.202083 -3.319265 0
M  V30 36 H 3.606688 -1.427355 -3.766950 0
M  V30 37 H 1.580671 -0.823731 -2.644118 0
M  V30 38 H -1.324546 0.318768 4.859360 0
M  V30 39 H -1.485756 -1.377232 5.405784 0
M  V30 40 H -3.192453 2.135043 2.157761 0
M  V30 41 H -1.524808 1.523855 2.384737 0
M  V30 42 H -2.635406 1.817591 3.825458 0
M  V30 43 H -5.066459 0.170547 2.169373 0
M  V30 44 H -3.884733 0.179444 0.808162 0
M  V30 45 H -4.148216 -1.338196 1.697047 0
M  V30 END ATOM
M  V30 BEGIN BOND
M  V30 1 1 1 2
M  V30 2 1 2 3
M  V30 3 1 3 4
M  V30 4 1 4 5
M  V30 5 1 5 6
M  V30 6 1 6 7
M  V30 7 1 7 8
M  V30 8 2 8 9
M  V30 9 1 9 10
M  V30 10 2 10 11
M  V30 11 1 11 12
M  V30 12 2 12 13
M  V30 13 2 6 14
M  V30 14 1 14 15
M  V30 15 2 15 16
M  V30 16 1 16 17
M  V30 17 1 17 18
M  V30 18 1 18 19
M  V30 19 2 19 20
M  V30 20 1 19 21
M  V30 21 1 21 22
M  V30 22 1 21 23
M  V30 23 1 16 5
M  V30 24 1 13 8
M  V30 25 1 1 24
M  V30 26 1 1 25
M  V30 27 1 1 26
M  V30 28 1 3 27
M  V30 29 1 3 28
M  V30 30 1 4 29
M  V30 31 1 4 30
M  V30 32 1 7 31
M  V30 33 1 7 32
M  V30 34 1 9 33
M  V30 35 1 10 34
M  V30 36 1 11 35
M  V30 37 1 12 36
M  V30 38 1 13 37
M  V30 39 1 18 38
M  V30 40 1 18 39
M  V30 41 1 22 40
M  V30 42 1 22 41
M  V30 43 1 22 42
M  V30 44 1 23 43
M  V30 45 1 23 44
M  V30 46 1 23 45
M  V30 END BOND
M  V30 END CTAB
M  END
>  <Dataset>  (291) 
ChEMBL_Kinases

>  <Ligand_Instance>  (291) 
nan

>  <PDB_ID>  (291) 
nan

>  <Standardized_SMILES>  (291) 
COCCn1c(Cc2ccccc2)nnc1SCC(=O)N(C)C

>  <Name>  (291) 
nan

>  <Pocket>  (291) 
nan

>  <ATP_Site>  (291) 
nan

>  <Peripheral>  (291) 
nan

>  <Num_H_Atoms_ProtBoundConf>  (291) 
nan

>  <Num_Resolved_Atoms>  (291) 
nan

>  <Num_Not_Resolved_Atoms>  (291) 
nan

$$$$
CHEMBL1450165
     RDKit          3D

  0  0  0  0  0  0  0  0  0  0999 V3000
M  V30 BEGIN CTAB
M  V30 COUNTS 30 33 0 0 0
M  V30 BEGIN ATOM
M  V30 1 C -2.217024 -2.940105 2.173378 0
M  V30 2 C -2.215007 -2.736956 3.557770 0
M  V30 3 O -1.201983 -1.985877 3.848400 0
M  V30 4 C -0.509970 -1.654789 2.798088 0
M  V30 5 C 0.708237 -0.801717 2.803522 0
M  V30 6 N 1.736597 -1.400970 1.955132 0
M  V30 7 C 1.643024 -1.101862 0.557356 0
M  V30 8 C 2.235214 -1.916672 -0.386934 0
M  V30 9 C 2.176075 -1.674839 -1.749756 0
M  V30 10 C 1.483170 -0.552924 -2.175279 0
M  V30 11 C 0.876425 0.289560 -1.277222 0
M  V30 12 C 0.180625 1.414233 -1.686903 0
M  V30 13 C -0.435944 2.270197 -0.772831 0
M  V30 14 C -0.360467 2.004834 0.573477 0
M  V30 15 C 0.340631 0.876851 0.938592 0
M  V30 16 C 0.974832 -0.010877 0.064552 0
M  V30 17 N 0.456666 0.544736 2.319657 0
M  V30 18 C -1.115103 -2.236792 1.709441 0
M  V30 19 H -2.906524 -3.511095 1.565363 0
M  V30 20 H -2.991897 -3.191977 4.165119 0
M  V30 21 H 1.123154 -0.732635 3.833853 0
M  V30 22 H 2.517529 -2.017074 2.281982 0
M  V30 23 H 2.787752 -2.809778 -0.061536 0
M  V30 24 H 2.658789 -2.344997 -2.465318 0
M  V30 25 H 1.433762 -0.359270 -3.237829 0
M  V30 26 H 0.107652 1.643297 -2.738853 0
M  V30 27 H -0.987461 3.157522 -1.060056 0
M  V30 28 H -0.812803 2.622246 1.339888 0
M  V30 29 H 0.352066 1.330931 3.025766 0
M  V30 30 H -0.835140 -2.190339 0.684084 0
M  V30 END ATOM
M  V30 BEGIN BOND
M  V30 1 2 1 2
M  V30 2 1 2 3
M  V30 3 1 3 4
M  V30 4 1 4 5
M  V30 5 1 5 6
M  V30 6 1 6 7
M  V30 7 2 7 8
M  V30 8 1 8 9
M  V30 9 2 9 10
M  V30 10 1 10 11
M  V30 11 2 11 12
M  V30 12 1 12 13
M  V30 13 2 13 14
M  V30 14 1 14 15
M  V30 15 2 15 16
M  V30 16 1 15 17
M  V30 17 2 4 18
M  V30 18 1 18 1
M  V30 19 1 17 5
M  V30 20 1 16 7
M  V30 21 1 16 11
M  V30 22 1 1 19
M  V30 23 1 2 20
M  V30 24 1 5 21
M  V30 25 1 6 22
M  V30 26 1 8 23
M  V30 27 1 9 24
M  V30 28 1 10 25
M  V30 29 1 12 26
M  V30 30 1 13 27
M  V30 31 1 14 28
M  V30 32 1 17 29
M  V30 33 1 18 30
M  V30 END BOND
M  V30 END CTAB
M  END
>  <Dataset>  (292) 
ChEMBL_Kinases

>  <Ligand_Instance>  (292) 
nan

>  <PDB_ID>  (292) 
nan

>  <Standardized_SMILES>  (292) 
c1coc(C2Nc3cccc4cccc(c34)N2)c1

>  <Name>  (292) 
nan

>  <Pocket>  (292) 
nan

>  <ATP_Site>  (292) 
nan

>  <Peripheral>  (292) 
nan

>  <Num_H_Atoms_ProtBoundConf>  (292) 
nan

>  <Num_Resolved_Atoms>  (292) 
nan

>  <Num_Not_Resolved_Atoms>  (292) 
nan

$$$$
CHEMBL1450035
     RDKit          3D

  0  0  0  0  0  0  0  0  0  0999 V3000
M  V30 BEGIN CTAB
M  V30 COUNTS 63 68 0 0 0
M  V30 BEGIN ATOM
M  V30 1 C 0.902414 -1.476062 3.744535 0
M  V30 2 O 0.579978 -0.661457 2.616637 0
M  V30 3 C 1.543713 0.130759 2.007383 0
M  V30 4 C 2.839477 0.138905 2.491975 0
M  V30 5 C 3.819380 0.917699 1.904960 0
M  V30 6 C 3.453363 1.684590 0.819077 0
M  V30 7 C 2.163263 1.681395 0.330975 0
M  V30 8 C 1.166484 0.908508 0.904007 0
M  V30 9 C -0.213099 0.921437 0.372657 0
M  V30 10 C -0.731294 2.283168 0.096672 0
M  V30 11 N -0.516756 3.039777 -0.997123 0
M  V30 12 N -1.141426 4.202017 -0.882000 0
M  V30 13 N -1.747026 4.162371 0.293307 0
M  V30 14 N -1.515879 3.009535 0.909653 0
M  V30 15 C -2.074056 2.719971 2.207575 0
M  V30 16 C -3.404985 2.096171 2.175668 0
M  V30 17 C -4.460238 3.015540 2.119247 0
M  V30 18 C -5.787854 2.645137 2.084888 0
M  V30 19 C -6.136492 1.316510 2.105366 0
M  V30 20 C -5.103902 0.405872 2.160896 0
M  V30 21 C -3.778540 0.770389 2.195359 0
M  V30 22 N -0.371854 0.102677 -0.752276 0
M  V30 23 C 0.378637 0.315892 -1.920417 0
M  V30 24 C 0.165477 -0.936712 -2.790178 0
M  V30 25 N -0.030931 -2.077311 -1.898416 0
M  V30 26 C 0.800219 -3.216081 -1.560785 0
M  V30 27 N 0.865919 -4.268030 -2.055212 0
M  V30 28 C 1.645032 -5.286154 -1.711611 0
M  V30 29 C 1.721084 -6.531388 -2.298633 0
M  V30 30 C 2.593610 -7.466388 -1.802847 0
M  V30 31 C 3.437724 -7.272832 -0.728383 0
M  V30 32 C 3.381737 -6.036855 -0.122951 0
M  V30 33 C 2.488079 -5.091722 -0.637750 0
M  V30 34 S 2.097292 -3.369674 -0.153766 0
M  V30 35 C -1.320462 -2.033685 -1.233084 0
M  V30 36 C -1.602116 -0.584972 -0.899867 0
M  V30 37 H -0.009966 -1.843594 4.231679 0
M  V30 38 H 1.454381 -2.392857 3.404594 0
M  V30 39 H 1.495214 -0.922706 4.487967 0
M  V30 40 H 3.144802 -0.448892 3.333865 0
M  V30 41 H 4.842206 0.955359 2.249011 0
M  V30 42 H 4.233995 2.303752 0.352849 0
M  V30 43 H 1.994056 2.311272 -0.506406 0
M  V30 44 H -0.846306 0.472426 1.195605 0
M  V30 45 H -2.105855 3.668889 2.816768 0
M  V30 46 H -1.366437 2.064613 2.797925 0
M  V30 47 H -4.309466 4.090030 2.098203 0
M  V30 48 H -6.595157 3.359863 2.041452 0
M  V30 49 H -7.157951 0.999940 2.079884 0
M  V30 50 H -5.299928 -0.661886 2.180045 0
M  V30 51 H -2.946082 0.091023 2.241197 0
M  V30 52 H 1.466256 0.375173 -1.793812 0
M  V30 53 H -0.077193 1.151490 -2.490484 0
M  V30 54 H 1.061330 -1.135598 -3.421489 0
M  V30 55 H -0.743506 -0.833327 -3.408624 0
M  V30 56 H 1.130973 -6.864809 -3.157598 0
M  V30 57 H 2.672536 -8.468243 -2.254816 0
M  V30 58 H 4.138605 -7.967346 -0.299827 0
M  V30 59 H 3.942671 -5.675271 0.717040 0
M  V30 60 H -1.346068 -2.664235 -0.309819 0
M  V30 61 H -2.140711 -2.443954 -1.877652 0
M  V30 62 H -2.144339 -0.152785 -1.768461 0
M  V30 63 H -2.249500 -0.459892 -0.014341 0
M  V30 END ATOM
M  V30 BEGIN BOND
M  V30 1 1 1 2
M  V30 2 1 2 3
M  V30 3 2 3 4
M  V30 4 1 4 5
M  V30 5 2 5 6
M  V30 6 1 6 7
M  V30 7 2 7 8
M  V30 8 1 8 9
M  V30 9 1 9 10
M  V30 10 2 10 11
M  V30 11 1 11 12
M  V30 12 2 12 13
M  V30 13 1 13 14
M  V30 14 1 14 15
M  V30 15 1 15 16
M  V30 16 2 16 17
M  V30 17 1 17 18
M  V30 18 2 18 19
M  V30 19 1 19 20
M  V30 20 2 20 21
M  V30 21 1 9 22
M  V30 22 1 22 23
M  V30 23 1 23 24
M  V30 24 1 24 25
M  V30 25 1 25 26
M  V30 26 2 26 27
M  V30 27 1 27 28
M  V30 28 2 28 29
M  V30 29 1 29 30
M  V30 30 2 30 31
M  V30 31 1 31 32
M  V30 32 2 32 33
M  V30 33 1 33 34
M  V30 34 1 25 35
M  V30 35 1 35 36
M  V30 36 1 8 3
M  V30 37 1 14 10
M  V30 38 1 21 16
M  V30 39 1 36 22
M  V30 40 1 34 26
M  V30 41 1 33 28
M  V30 42 1 1 37
M  V30 43 1 1 38
M  V30 44 1 1 39
M  V30 45 1 4 40
M  V30 46 1 5 41
M  V30 47 1 6 42
M  V30 48 1 7 43
M  V30 49 1 9 44
M  V30 50 1 15 45
M  V30 51 1 15 46
M  V30 52 1 17 47
M  V30 53 1 18 48
M  V30 54 1 19 49
M  V30 55 1 20 50
M  V30 56 1 21 51
M  V30 57 1 23 52
M  V30 58 1 23 53
M  V30 59 1 24 54
M  V30 60 1 24 55
M  V30 61 1 29 56
M  V30 62 1 30 57
M  V30 63 1 31 58
M  V30 64 1 32 59
M  V30 65 1 35 60
M  V30 66 1 35 61
M  V30 67 1 36 62
M  V30 68 1 36 63
M  V30 END BOND
M  V30 END CTAB
M  END
>  <Dataset>  (293) 
ChEMBL_Kinases

>  <Ligand_Instance>  (293) 
nan

>  <PDB_ID>  (293) 
nan

>  <Standardized_SMILES>  (293) 
COc1ccccc1C(c1nnnn1Cc1ccccc1)N1CCN(c2nc3ccccc3s2)CC1

>  <Name>  (293) 
nan

>  <Pocket>  (293) 
nan

>  <ATP_Site>  (293) 
nan

>  <Peripheral>  (293) 
nan

>  <Num_H_Atoms_ProtBoundConf>  (293) 
nan

>  <Num_Resolved_Atoms>  (293) 
nan

>  <Num_Not_Resolved_Atoms>  (293) 
nan

$$$$
CHEMBL1517897
     RDKit          3D

  0  0  0  0  0  0  0  0  0  0999 V3000
M  V30 BEGIN CTAB
M  V30 COUNTS 34 36 0 0 0
M  V30 BEGIN ATOM
M  V30 1 O 0.144787 -2.928340 1.525853 0
M  V30 2 C 0.814295 -1.837146 1.447336 0
M  V30 3 C 0.332432 -2.314228 2.760983 0
M  V30 4 C -0.129483 -1.307261 3.763143 0
M  V30 5 C 1.148534 -2.123046 3.980269 0
M  V30 6 N 0.835442 -2.141130 0.066651 0
M  V30 7 C 0.482344 -3.007855 -1.072128 0
M  V30 8 C 1.886912 -3.038098 -1.698572 0
M  V30 9 N 2.192599 -1.613187 -1.659059 0
M  V30 10 C 1.575940 -1.112898 -0.633148 0
M  V30 11 S 1.948918 0.629346 -0.624644 0
M  V30 12 C 1.014022 1.573458 0.569098 0
M  V30 13 C -0.406203 1.620226 0.136348 0
M  V30 14 C -0.640232 2.683149 -0.750645 0
M  V30 15 C -1.887247 2.947046 -1.292230 0
M  V30 16 C -2.944487 2.135714 -0.949483 0
M  V30 17 C -2.743829 1.085140 -0.080839 0
M  V30 18 F -3.689191 0.195226 0.353051 0
M  V30 19 C -1.495982 0.845469 0.442510 0
M  V30 20 H -0.237445 -3.266151 2.714413 0
M  V30 21 H -0.037331 -0.256749 3.451313 0
M  V30 22 H -0.950571 -1.522851 4.456753 0
M  V30 23 H 2.040279 -1.493846 4.043620 0
M  V30 24 H 1.131753 -2.915782 4.758113 0
M  V30 25 H -0.181820 -2.500969 -1.786520 0
M  V30 26 H 0.157962 -3.997993 -0.761286 0
M  V30 27 H 1.863601 -3.450303 -2.715432 0
M  V30 28 H 2.514565 -3.567113 -0.978483 0
M  V30 29 H 1.007153 1.093378 1.588150 0
M  V30 30 H 1.445930 2.582192 0.664817 0
M  V30 31 H 0.124429 3.394169 -1.094658 0
M  V30 32 H -2.075113 3.762380 -1.975078 0
M  V30 33 H -3.977651 2.244544 -1.313153 0
M  V30 34 H -1.266917 0.060025 1.121181 0
M  V30 END ATOM
M  V30 BEGIN BOND
M  V30 1 2 1 2
M  V30 2 1 2 3
M  V30 3 1 3 4
M  V30 4 1 4 5
M  V30 5 1 2 6
M  V30 6 1 6 7
M  V30 7 1 7 8
M  V30 8 1 8 9
M  V30 9 2 9 10
M  V30 10 1 10 11
M  V30 11 1 11 12
M  V30 12 1 12 13
M  V30 13 2 13 14
M  V30 14 1 14 15
M  V30 15 2 15 16
M  V30 16 1 16 17
M  V30 17 1 17 18
M  V30 18 2 17 19
M  V30 19 1 5 3
M  V30 20 1 10 6
M  V30 21 1 19 13
M  V30 22 1 3 20
M  V30 23 1 4 21
M  V30 24 1 4 22
M  V30 25 1 5 23
M  V30 26 1 5 24
M  V30 27 1 7 25
M  V30 28 1 7 26
M  V30 29 1 8 27
M  V30 30 1 8 28
M  V30 31 1 12 29
M  V30 32 1 12 30
M  V30 33 1 14 31
M  V30 34 1 15 32
M  V30 35 1 16 33
M  V30 36 1 19 34
M  V30 END BOND
M  V30 END CTAB
M  END
>  <Dataset>  (294) 
ChEMBL_Kinases

>  <Ligand_Instance>  (294) 
nan

>  <PDB_ID>  (294) 
nan

>  <Standardized_SMILES>  (294) 
O=C(C1CC1)N1CCN=C1SCc1cccc(F)c1

>  <Name>  (294) 
nan

>  <Pocket>  (294) 
nan

>  <ATP_Site>  (294) 
nan

>  <Peripheral>  (294) 
nan

>  <Num_H_Atoms_ProtBoundConf>  (294) 
nan

>  <Num_Resolved_Atoms>  (294) 
nan

>  <Num_Not_Resolved_Atoms>  (294) 
nan

$$$$
CHEMBL1449975
     RDKit          3D

  0  0  0  0  0  0  0  0  0  0999 V3000
M  V30 BEGIN CTAB
M  V30 COUNTS 46 48 0 0 0
M  V30 BEGIN ATOM
M  V30 1 C 1.137558 -5.396621 -2.148990 0
M  V30 2 C 1.350382 -3.944043 -2.535262 0
M  V30 3 C 2.801207 -3.642177 -2.323390 0
M  V30 4 C 3.057678 -2.149758 -2.351085 0
M  V30 5 C 2.298091 -1.489081 -1.220318 0
M  V30 6 C 1.220995 -2.427419 -0.675260 0
M  V30 7 N 0.504659 -3.058813 -1.782159 0
M  V30 8 C -0.847986 -2.985247 -2.273270 0
M  V30 9 O -1.311556 -3.617014 -3.271453 0
M  V30 10 C -1.918978 -2.171919 -1.708329 0
M  V30 11 C -3.216084 -2.663367 -1.551012 0
M  V30 12 C -4.254020 -1.917124 -1.018504 0
M  V30 13 C -3.994736 -0.618034 -0.621432 0
M  V30 14 C -2.726443 -0.075381 -0.753088 0
M  V30 15 N -2.472246 1.263203 -0.340637 0
M  V30 16 C -2.517305 2.539103 -0.931291 0
M  V30 17 O -2.866729 2.543109 -2.128968 0
M  V30 18 C -2.159126 3.681296 -0.095655 0
M  V30 19 C -1.772736 3.689118 1.224509 0
M  V30 20 C -1.470668 4.878922 1.851813 0
M  V30 21 C -1.552716 6.077348 1.161110 0
M  V30 22 C -1.941302 6.100603 -0.177200 0
M  V30 23 C -2.234056 4.896112 -0.767597 0
M  V30 24 C -1.734532 -0.870132 -1.291101 0
M  V30 25 H 0.878996 -5.388760 -1.067383 0
M  V30 26 H 2.080941 -5.971470 -2.262678 0
M  V30 27 H 0.335861 -5.846851 -2.766110 0
M  V30 28 H 1.152703 -3.863155 -3.627957 0
M  V30 29 H 3.382680 -4.148428 -3.096447 0
M  V30 30 H 3.183937 -3.998953 -1.340956 0
M  V30 31 H 4.151281 -2.008653 -2.169559 0
M  V30 32 H 2.841817 -1.694285 -3.338348 0
M  V30 33 H 1.762288 -0.614459 -1.640722 0
M  V30 34 H 2.963806 -1.246947 -0.370515 0
M  V30 35 H 1.713715 -3.240976 -0.083786 0
M  V30 36 H 0.580248 -1.853435 -0.004814 0
M  V30 37 H -3.394733 -3.677488 -1.867077 0
M  V30 38 H -5.243906 -2.357977 -0.921929 0
M  V30 39 H -4.769966 -0.007348 -0.204679 0
M  V30 40 H -2.208801 1.027611 0.641870 0
M  V30 41 H -1.737175 2.721467 1.677143 0
M  V30 42 H -1.171915 4.827216 2.892301 0
M  V30 43 H -1.303689 7.006142 1.696082 0
M  V30 44 H -1.996668 7.050534 -0.691593 0
M  V30 45 H -2.529250 4.995130 -1.812101 0
M  V30 46 H -0.759903 -0.409550 -1.376724 0
M  V30 END ATOM
M  V30 BEGIN BOND
M  V30 1 1 1 2
M  V30 2 1 2 3
M  V30 3 1 3 4
M  V30 4 1 4 5
M  V30 5 1 5 6
M  V30 6 1 6 7
M  V30 7 1 7 8
M  V30 8 2 8 9
M  V30 9 1 8 10
M  V30 10 2 10 11
M  V30 11 1 11 12
M  V30 12 2 12 13
M  V30 13 1 13 14
M  V30 14 1 14 15
M  V30 15 1 15 16
M  V30 16 2 16 17
M  V30 17 1 16 18
M  V30 18 2 18 19
M  V30 19 1 19 20
M  V30 20 2 20 21
M  V30 21 1 21 22
M  V30 22 2 22 23
M  V30 23 2 14 24
M  V30 24 1 7 2
M  V30 25 1 24 10
M  V30 26 1 23 18
M  V30 27 1 1 25
M  V30 28 1 1 26
M  V30 29 1 1 27
M  V30 30 1 2 28
M  V30 31 1 3 29
M  V30 32 1 3 30
M  V30 33 1 4 31
M  V30 34 1 4 32
M  V30 35 1 5 33
M  V30 36 1 5 34
M  V30 37 1 6 35
M  V30 38 1 6 36
M  V30 39 1 11 37
M  V30 40 1 12 38
M  V30 41 1 13 39
M  V30 42 1 15 40
M  V30 43 1 19 41
M  V30 44 1 20 42
M  V30 45 1 21 43
M  V30 46 1 22 44
M  V30 47 1 23 45
M  V30 48 1 24 46
M  V30 END BOND
M  V30 END CTAB
M  END
>  <Dataset>  (295) 
ChEMBL_Kinases

>  <Ligand_Instance>  (295) 
nan

>  <PDB_ID>  (295) 
nan

>  <Standardized_SMILES>  (295) 
CC1CCCCN1C(=O)c1cccc(NC(=O)c2ccccc2)c1

>  <Name>  (295) 
nan

>  <Pocket>  (295) 
nan

>  <ATP_Site>  (295) 
nan

>  <Peripheral>  (295) 
nan

>  <Num_H_Atoms_ProtBoundConf>  (295) 
nan

>  <Num_Resolved_Atoms>  (295) 
nan

>  <Num_Not_Resolved_Atoms>  (295) 
nan

$$$$
CHEMBL1449800
     RDKit          3D

  0  0  0  0  0  0  0  0  0  0999 V3000
M  V30 BEGIN CTAB
M  V30 COUNTS 35 36 0 0 0
M  V30 BEGIN ATOM
M  V30 1 C -0.405412 -1.419025 4.602912 0
M  V30 2 C 0.117819 -2.551661 3.802132 0
M  V30 3 O 0.367489 -3.653689 4.271893 0
M  V30 4 C 0.401432 -2.503886 2.364306 0
M  V30 5 O 0.134027 -1.253874 1.755559 0
M  V30 6 C 0.382997 -1.146630 0.394401 0
M  V30 7 C 0.870196 -2.193141 -0.363575 0
M  V30 8 C 1.130924 -2.127689 -1.717946 0
M  V30 9 C 1.656839 -3.304188 -2.465103 0
M  V30 10 C 0.882274 -0.917063 -2.357207 0
M  V30 11 C 0.395089 0.134782 -1.607385 0
M  V30 12 O 0.179778 1.258993 -2.276076 0
M  V30 13 C -0.286583 2.327649 -1.651998 0
M  V30 14 O -0.465320 3.363129 -2.362178 0
M  V30 15 C -0.572252 2.343638 -0.301096 0
M  V30 16 C -1.096171 3.559030 0.377556 0
M  V30 17 C -0.350678 1.167215 0.416642 0
M  V30 18 C -0.631883 1.093624 1.882010 0
M  V30 19 C 0.136624 0.054206 -0.240975 0
M  V30 20 H 0.373675 -0.637274 4.770108 0
M  V30 21 H -1.265341 -0.981028 4.065609 0
M  V30 22 H -0.730100 -1.765761 5.584549 0
M  V30 23 H -0.178282 -3.327996 1.859067 0
M  V30 24 H 1.467143 -2.808270 2.209559 0
M  V30 25 H 1.057985 -3.126853 0.148586 0
M  V30 26 H 0.826347 -3.739509 -3.081756 0
M  V30 27 H 2.480658 -3.036072 -3.137129 0
M  V30 28 H 1.912704 -4.080639 -1.725658 0
M  V30 29 H 1.072235 -0.820607 -3.417844 0
M  V30 30 H -0.964876 4.407607 -0.341234 0
M  V30 31 H -0.539265 3.852249 1.273180 0
M  V30 32 H -2.205573 3.494523 0.524928 0
M  V30 33 H 0.252618 0.955793 2.505062 0
M  V30 34 H -1.476267 0.408932 2.072854 0
M  V30 35 H -1.036689 2.102031 2.195536 0
M  V30 END ATOM
M  V30 BEGIN BOND
M  V30 1 1 1 2
M  V30 2 2 2 3
M  V30 3 1 2 4
M  V30 4 1 4 5
M  V30 5 1 5 6
M  V30 6 2 6 7
M  V30 7 1 7 8
M  V30 8 1 8 9
M  V30 9 2 8 10
M  V30 10 1 10 11
M  V30 11 1 11 12
M  V30 12 1 12 13
M  V30 13 2 13 14
M  V30 14 1 13 15
M  V30 15 1 15 16
M  V30 16 2 15 17
M  V30 17 1 17 18
M  V30 18 1 17 19
M  V30 19 1 19 6
M  V30 20 2 19 11
M  V30 21 1 1 20
M  V30 22 1 1 21
M  V30 23 1 1 22
M  V30 24 1 4 23
M  V30 25 1 4 24
M  V30 26 1 7 25
M  V30 27 1 9 26
M  V30 28 1 9 27
M  V30 29 1 9 28
M  V30 30 1 10 29
M  V30 31 1 16 30
M  V30 32 1 16 31
M  V30 33 1 16 32
M  V30 34 1 18 33
M  V30 35 1 18 34
M  V30 36 1 18 35
M  V30 END BOND
M  V30 END CTAB
M  END
>  <Dataset>  (296) 
ChEMBL_Kinases

>  <Ligand_Instance>  (296) 
nan

>  <PDB_ID>  (296) 
nan

>  <Standardized_SMILES>  (296) 
CC(=O)COc1cc(C)cc2oc(=O)c(C)c(C)c12

>  <Name>  (296) 
nan

>  <Pocket>  (296) 
nan

>  <ATP_Site>  (296) 
nan

>  <Peripheral>  (296) 
nan

>  <Num_H_Atoms_ProtBoundConf>  (296) 
nan

>  <Num_Resolved_Atoms>  (296) 
nan

>  <Num_Not_Resolved_Atoms>  (296) 
nan

$$$$
CHEMBL1449655
     RDKit          3D

  0  0  0  0  0  0  0  0  0  0999 V3000
M  V30 BEGIN CTAB
M  V30 COUNTS 27 30 0 0 0
M  V30 BEGIN ATOM
M  V30 1 C -0.508945 -4.772222 3.005151 0
M  V30 2 C -1.559356 -3.898605 3.188441 0
M  V30 3 C -1.398812 -2.601868 2.686186 0
M  V30 4 C -0.210978 -2.288559 2.047462 0
M  V30 5 N 0.038556 -0.994729 1.506097 0
M  V30 6 N 0.201317 0.211160 2.039726 0
M  V30 7 C 0.415976 1.116678 1.065598 0
M  V30 8 C 0.640918 2.477952 1.055155 0
M  V30 9 C 0.839467 3.204120 -0.118771 0
M  V30 10 C 0.798963 2.478933 -1.293103 0
M  V30 11 C 0.947884 2.844398 -2.612597 0
M  V30 12 N 0.820445 1.747205 -3.405335 0
M  V30 13 N 0.596128 0.704516 -2.623668 0
M  V30 14 C 0.573885 1.098504 -1.327565 0
M  V30 15 C 0.383808 0.432881 -0.131281 0
M  V30 16 N 0.150763 -0.855282 0.178856 0
M  V30 17 C 0.816407 -3.194650 1.885306 0
M  V30 18 C 0.693837 -4.500121 2.373359 0
M  V30 19 H -0.642784 -5.789377 3.402698 0
M  V30 20 H -2.456518 -4.215836 3.697572 0
M  V30 21 H -2.172045 -1.879633 2.794878 0
M  V30 22 H 0.664348 3.005868 2.000137 0
M  V30 23 H 1.016084 4.270819 -0.132222 0
M  V30 24 H 1.140561 3.841725 -3.034830 0
M  V30 25 H 0.868333 1.615139 -4.441150 0
M  V30 26 H 1.748699 -2.941074 1.381442 0
M  V30 27 H 1.438719 -5.262306 2.290690 0
M  V30 END ATOM
M  V30 BEGIN BOND
M  V30 1 2 1 2
M  V30 2 1 2 3
M  V30 3 2 3 4
M  V30 4 1 4 5
M  V30 5 1 5 6
M  V30 6 2 6 7
M  V30 7 1 7 8
M  V30 8 2 8 9
M  V30 9 1 9 10
M  V30 10 2 10 11
M  V30 11 1 11 12
M  V30 12 1 12 13
M  V30 13 2 13 14
M  V30 14 1 14 15
M  V30 15 2 15 16
M  V30 16 1 4 17
M  V30 17 2 17 18
M  V30 18 1 18 1
M  V30 19 1 16 5
M  V30 20 1 15 7
M  V30 21 1 14 10
M  V30 22 1 1 19
M  V30 23 1 2 20
M  V30 24 1 3 21
M  V30 25 1 8 22
M  V30 26 1 9 23
M  V30 27 1 11 24
M  V30 28 1 12 25
M  V30 29 1 17 26
M  V30 30 1 18 27
M  V30 END BOND
M  V30 END CTAB
M  END
>  <Dataset>  (297) 
ChEMBL_Kinases

>  <Ligand_Instance>  (297) 
nan

>  <PDB_ID>  (297) 
nan

>  <Standardized_SMILES>  (297) 
c1ccc(-n2nc3ccc4c[nH]nc4c3n2)cc1

>  <Name>  (297) 
nan

>  <Pocket>  (297) 
nan

>  <ATP_Site>  (297) 
nan

>  <Peripheral>  (297) 
nan

>  <Num_H_Atoms_ProtBoundConf>  (297) 
nan

>  <Num_Resolved_Atoms>  (297) 
nan

>  <Num_Not_Resolved_Atoms>  (297) 
nan

$$$$
CHEMBL1449616
     RDKit          3D

  0  0  0  0  0  0  0  0  0  0999 V3000
M  V30 BEGIN CTAB
M  V30 COUNTS 54 57 0 0 0
M  V30 BEGIN ATOM
M  V30 1 C -3.858697 -4.787480 1.325646 0
M  V30 2 O -2.735909 -4.016008 0.953614 0
M  V30 3 C -1.442058 -4.407522 1.130046 0
M  V30 4 O -1.290863 -5.535234 1.663663 0
M  V30 5 C -0.252097 -3.612300 0.744262 0
M  V30 6 C 0.922545 -4.170991 1.003719 0
M  V30 7 N 1.032980 -5.452483 1.613375 0
M  V30 8 O 2.080619 -3.483702 0.670289 0
M  V30 9 C 1.930931 -2.241198 0.079837 0
M  V30 10 C 3.133321 -1.605425 -0.228378 0
M  V30 11 C 3.150945 -0.342303 -0.828789 0
M  V30 12 C 4.443211 0.283441 -1.132958 0
M  V30 13 N 1.961918 0.238948 -1.099114 0
M  V30 14 C 1.909527 1.546801 -1.723445 0
M  V30 15 C 1.900385 2.685155 -0.732528 0
M  V30 16 C 0.758286 2.662742 0.191844 0
M  V30 17 C 0.828668 1.992579 1.418195 0
M  V30 18 C -0.266270 1.994624 2.255053 0
M  V30 19 C -1.446632 2.639988 1.928344 0
M  V30 20 C -1.493655 3.294481 0.714133 0
M  V30 21 C -0.423017 3.321315 -0.159115 0
M  V30 22 C 0.811383 -0.424937 -0.777798 0
M  V30 23 O -0.243613 0.196208 -1.067548 0
M  V30 24 C 0.707123 -1.659991 -0.190385 0
M  V30 25 C -0.566423 -2.310880 0.122565 0
M  V30 26 C -1.601582 -1.525498 0.765795 0
M  V30 27 C -2.633783 -0.904735 0.093936 0
M  V30 28 C -3.568563 -0.178306 0.798201 0
M  V30 29 C -3.551825 -0.017328 2.179341 0
M  V30 30 N -2.550718 -0.619651 2.830516 0
M  V30 31 C -1.642404 -1.325784 2.142600 0
M  V30 32 H -4.579623 -4.218449 1.947410 0
M  V30 33 H -4.338694 -5.287917 0.471954 0
M  V30 34 H -3.449366 -5.597547 1.981253 0
M  V30 35 H 1.085632 -6.446355 1.249987 0
M  V30 36 H 1.100746 -5.909078 2.541946 0
M  V30 37 H 4.095279 -2.059044 -0.017825 0
M  V30 38 H 4.480124 0.769464 -2.126057 0
M  V30 39 H 5.237104 -0.519505 -1.152548 0
M  V30 40 H 4.791513 0.982865 -0.345359 0
M  V30 41 H 0.980327 1.638659 -2.356208 0
M  V30 42 H 2.733431 1.736444 -2.437347 0
M  V30 43 H 2.885192 2.744554 -0.248555 0
M  V30 44 H 1.809820 3.611676 -1.357594 0
M  V30 45 H 1.742670 1.465439 1.724239 0
M  V30 46 H -0.246985 1.480859 3.221334 0
M  V30 47 H -2.338168 2.677862 2.540433 0
M  V30 48 H -2.391396 3.821109 0.396934 0
M  V30 49 H -0.506053 3.855197 -1.115014 0
M  V30 50 H -0.989963 -2.568599 -0.901388 0
M  V30 51 H -2.697621 -1.000128 -0.990818 0
M  V30 52 H -4.370892 0.297803 0.220615 0
M  V30 53 H -4.290809 0.554163 2.719504 0
M  V30 54 H -0.855043 -1.787451 2.756888 0
M  V30 END ATOM
M  V30 BEGIN BOND
M  V30 1 1 1 2
M  V30 2 1 2 3
M  V30 3 2 3 4
M  V30 4 1 3 5
M  V30 5 2 5 6
M  V30 6 1 6 7
M  V30 7 1 6 8
M  V30 8 1 8 9
M  V30 9 1 9 10
M  V30 10 2 10 11
M  V30 11 1 11 12
M  V30 12 1 11 13
M  V30 13 1 13 14
M  V30 14 1 14 15
M  V30 15 1 15 16
M  V30 16 2 16 17
M  V30 17 1 17 18
M  V30 18 2 18 19
M  V30 19 1 19 20
M  V30 20 2 20 21
M  V30 21 1 13 22
M  V30 22 2 22 23
M  V30 23 1 22 24
M  V30 24 1 24 25
M  V30 25 1 25 26
M  V30 26 2 26 27
M  V30 27 1 27 28
M  V30 28 2 28 29
M  V30 29 1 29 30
M  V30 30 2 30 31
M  V30 31 1 25 5
M  V30 32 1 31 26
M  V30 33 2 24 9
M  V30 34 1 21 16
M  V30 35 1 1 32
M  V30 36 1 1 33
M  V30 37 1 1 34
M  V30 38 1 7 35
M  V30 39 1 7 36
M  V30 40 1 10 37
M  V30 41 1 12 38
M  V30 42 1 12 39
M  V30 43 1 12 40
M  V30 44 1 14 41
M  V30 45 1 14 42
M  V30 46 1 15 43
M  V30 47 1 15 44
M  V30 48 1 17 45
M  V30 49 1 18 46
M  V30 50 1 19 47
M  V30 51 1 20 48
M  V30 52 1 21 49
M  V30 53 1 25 50
M  V30 54 1 27 51
M  V30 55 1 28 52
M  V30 56 1 29 53
M  V30 57 1 31 54
M  V30 END BOND
M  V30 END CTAB
M  END
>  <Dataset>  (298) 
ChEMBL_Kinases

>  <Ligand_Instance>  (298) 
nan

>  <PDB_ID>  (298) 
nan

>  <Standardized_SMILES>  (298) 
COC(=O)C1=C(N)Oc2cc(C)n(CCc3ccccc3)c(=O)c2C1c1cccnc1

>  <Name>  (298) 
nan

>  <Pocket>  (298) 
nan

>  <ATP_Site>  (298) 
nan

>  <Peripheral>  (298) 
nan

>  <Num_H_Atoms_ProtBoundConf>  (298) 
nan

>  <Num_Resolved_Atoms>  (298) 
nan

>  <Num_Not_Resolved_Atoms>  (298) 
nan

$$$$
CHEMBL1449612
     RDKit          3D

  0  0  0  0  0  0  0  0  0  0999 V3000
M  V30 BEGIN CTAB
M  V30 COUNTS 37 40 0 0 0
M  V30 BEGIN ATOM
M  V30 1 C 0.823076 -2.139731 1.240487 0
M  V30 2 N -0.011010 -1.721013 2.346798 0
M  V30 3 C 0.372121 -1.208602 3.552186 0
M  V30 4 S 2.103732 -0.978052 3.929792 0
M  V30 5 C 2.612771 0.674467 3.396181 0
M  V30 6 C 2.562548 0.829344 1.916129 0
M  V30 7 N 3.511603 0.597128 0.985054 0
M  V30 8 C 3.025488 0.874542 -0.237231 0
M  V30 9 C 3.523013 0.828829 -1.538328 0
M  V30 10 C 2.739866 1.194111 -2.629371 0
M  V30 11 C 1.423896 1.617731 -2.428449 0
M  V30 12 C 0.894299 1.676829 -1.154458 0
M  V30 13 C 1.709233 1.305492 -0.113235 0
M  V30 14 N 1.478240 1.259624 1.211284 0
M  V30 15 N -0.742015 -0.950827 4.297056 0
M  V30 16 N -1.813134 -1.297574 3.567217 0
M  V30 17 C -1.358033 -1.765683 2.380859 0
M  V30 18 C -2.166375 -2.266787 1.248143 0
M  V30 19 C -2.459811 -1.318715 0.278181 0
M  V30 20 C -3.215801 -1.709126 -0.821050 0
M  V30 21 C -3.649128 -3.016034 -0.916083 0
M  V30 22 C -3.333014 -3.926166 0.073841 0
M  V30 23 N -2.600516 -3.539030 1.134582 0
M  V30 24 H 0.840864 -1.407503 0.431682 0
M  V30 25 H 1.870944 -2.225946 1.631251 0
M  V30 26 H 0.556306 -3.160965 0.908711 0
M  V30 27 H 3.603729 0.957872 3.801431 0
M  V30 28 H 1.871388 1.383894 3.826436 0
M  V30 29 H 4.555753 0.494818 -1.680001 0
M  V30 30 H 3.134857 1.156422 -3.650703 0
M  V30 31 H 0.792597 1.909142 -3.276093 0
M  V30 32 H -0.131633 2.001869 -0.937328 0
M  V30 33 H 0.572376 1.520813 1.673862 0
M  V30 34 H -2.136444 -0.277502 0.316566 0
M  V30 35 H -3.472056 -0.993557 -1.613132 0
M  V30 36 H -4.238027 -3.370107 -1.747735 0
M  V30 37 H -3.654055 -4.966433 0.038441 0
M  V30 END ATOM
M  V30 BEGIN BOND
M  V30 1 1 1 2
M  V30 2 1 2 3
M  V30 3 1 3 4
M  V30 4 1 4 5
M  V30 5 1 5 6
M  V30 6 2 6 7
M  V30 7 1 7 8
M  V30 8 2 8 9
M  V30 9 1 9 10
M  V30 10 2 10 11
M  V30 11 1 11 12
M  V30 12 2 12 13
M  V30 13 1 13 14
M  V30 14 2 3 15
M  V30 15 1 15 16
M  V30 16 2 16 17
M  V30 17 1 17 18
M  V30 18 2 18 19
M  V30 19 1 19 20
M  V30 20 2 20 21
M  V30 21 1 21 22
M  V30 22 2 22 23
M  V30 23 1 17 2
M  V30 24 1 23 18
M  V30 25 1 14 6
M  V30 26 1 13 8
M  V30 27 1 1 24
M  V30 28 1 1 25
M  V30 29 1 1 26
M  V30 30 1 5 27
M  V30 31 1 5 28
M  V30 32 1 9 29
M  V30 33 1 10 30
M  V30 34 1 11 31
M  V30 35 1 12 32
M  V30 36 1 14 33
M  V30 37 1 19 34
M  V30 38 1 20 35
M  V30 39 1 21 36
M  V30 40 1 22 37
M  V30 END BOND
M  V30 END CTAB
M  END
>  <Dataset>  (299) 
ChEMBL_Kinases

>  <Ligand_Instance>  (299) 
nan

>  <PDB_ID>  (299) 
nan

>  <Standardized_SMILES>  (299) 
Cn1c(SCc2nc3ccccc3[nH]2)nnc1-c1ccccn1

>  <Name>  (299) 
nan

>  <Pocket>  (299) 
nan

>  <ATP_Site>  (299) 
nan

>  <Peripheral>  (299) 
nan

>  <Num_H_Atoms_ProtBoundConf>  (299) 
nan

>  <Num_Resolved_Atoms>  (299) 
nan

>  <Num_Not_Resolved_Atoms>  (299) 
nan

$$$$
CHEMBL1449608
     RDKit          3D

  0  0  0  0  0  0  0  0  0  0999 V3000
M  V30 BEGIN CTAB
M  V30 COUNTS 37 38 0 0 0
M  V30 BEGIN ATOM
M  V30 1 C 0.765502 -5.466285 -1.163019 0
M  V30 2 C 1.412119 -4.506618 -0.235938 0
M  V30 3 C 2.262558 -4.833745 0.788417 0
M  V30 4 C 2.847736 -3.934693 1.627070 0
M  V30 5 C 2.590042 -2.565572 1.467705 0
M  V30 6 C 1.751114 -2.158195 0.467429 0
M  V30 7 N 1.473630 -0.789446 0.297910 0
M  V30 8 C 2.041494 0.272169 -0.420190 0
M  V30 9 O 3.024646 -0.262730 -0.980655 0
M  V30 10 C 1.852166 1.665278 -0.689851 0
M  V30 11 C 2.849052 2.312007 -1.515236 0
M  V30 12 N 3.667294 2.818913 -2.184598 0
M  V30 13 C 0.927340 2.525570 -0.333814 0
M  V30 14 C -0.243456 2.311391 0.472187 0
M  V30 15 C -1.161187 1.319951 0.091606 0
M  V30 16 C -2.278034 1.101297 0.866709 0
M  V30 17 C -2.586228 1.787538 2.017032 0
M  V30 18 C -3.779875 1.536914 2.818230 0
M  V30 19 O -4.090950 2.129819 3.855009 0
M  V30 20 O -4.620783 0.518400 2.324496 0
M  V30 21 C -1.674101 2.778086 2.402250 0
M  V30 22 C -0.539874 3.003286 1.618567 0
M  V30 23 C 1.184320 -3.131239 -0.357319 0
M  V30 24 H -0.243147 -5.748264 -0.786380 0
M  V30 25 H 1.402928 -6.344757 -1.397956 0
M  V30 26 H 0.578738 -4.877363 -2.105445 0
M  V30 27 H 2.469222 -5.905209 0.920461 0
M  V30 28 H 3.520671 -4.217828 2.434534 0
M  V30 29 H 3.031758 -1.812920 2.105798 0
M  V30 30 H 0.657712 -0.478019 0.859430 0
M  V30 31 H 0.868645 3.574623 -0.583591 0
M  V30 32 H -1.044903 0.697898 -0.795193 0
M  V30 33 H -2.990906 0.330668 0.572355 0
M  V30 34 H -5.233177 0.001295 2.934334 0
M  V30 35 H -1.822589 3.372655 3.285861 0
M  V30 36 H 0.190480 3.760981 1.882730 0
M  V30 37 H 0.537690 -2.742280 -1.117962 0
M  V30 END ATOM
M  V30 BEGIN BOND
M  V30 1 1 1 2
M  V30 2 2 2 3
M  V30 3 1 3 4
M  V30 4 2 4 5
M  V30 5 1 5 6
M  V30 6 1 6 7
M  V30 7 1 7 8
M  V30 8 2 8 9
M  V30 9 1 8 10
M  V30 10 1 10 11
M  V30 11 3 11 12
M  V30 12 2 10 13
M  V30 13 1 13 14
M  V30 14 2 14 15
M  V30 15 1 15 16
M  V30 16 2 16 17
M  V30 17 1 17 18
M  V30 18 2 18 19
M  V30 19 1 18 20
M  V30 20 1 17 21
M  V30 21 2 21 22
M  V30 22 2 6 23
M  V30 23 1 23 2
M  V30 24 1 22 14
M  V30 25 1 1 24
M  V30 26 1 1 25
M  V30 27 1 1 26
M  V30 28 1 3 27
M  V30 29 1 4 28
M  V30 30 1 5 29
M  V30 31 1 7 30
M  V30 32 1 13 31
M  V30 33 1 15 32
M  V30 34 1 16 33
M  V30 35 1 20 34
M  V30 36 1 21 35
M  V30 37 1 22 36
M  V30 38 1 23 37
M  V30 END BOND
M  V30 END CTAB
M  END
>  <Dataset>  (300) 
ChEMBL_Kinases

>  <Ligand_Instance>  (300) 
nan

>  <PDB_ID>  (300) 
nan

>  <Standardized_SMILES>  (300) 
Cc1cccc(NC(=O)/C(C#N)=C\c2ccc(C(=O)O)cc2)c1

>  <Name>  (300) 
nan

>  <Pocket>  (300) 
nan

>  <ATP_Site>  (300) 
nan

>  <Peripheral>  (300) 
nan

>  <Num_H_Atoms_ProtBoundConf>  (300) 
nan

>  <Num_Resolved_Atoms>  (300) 
nan

>  <Num_Not_Resolved_Atoms>  (300) 
nan

$$$$
CHEMBL1449477
     RDKit          3D

  0  0  0  0  0  0  0  0  0  0999 V3000
M  V30 BEGIN CTAB
M  V30 COUNTS 43 43 0 0 0
M  V30 BEGIN ATOM
M  V30 1 O 4.931446 -4.441994 1.102156 0
M  V30 2 C 4.044758 -4.042720 1.871408 0
M  V30 3 C 3.413380 -4.893134 2.929130 0
M  V30 4 Cl 4.127631 -6.504770 2.889189 0
M  V30 5 N 3.604253 -2.682204 1.731277 0
M  V30 6 C 4.160794 -1.798629 0.738714 0
M  V30 7 C 3.474684 -0.431651 0.858386 0
M  V30 8 N 2.075072 -0.691006 0.625218 0
M  V30 9 C 1.181654 0.389790 0.671443 0
M  V30 10 O 1.916312 1.403200 0.931124 0
M  V30 11 C -0.263131 0.432890 0.479412 0
M  V30 12 C -0.747071 1.741397 0.617738 0
M  V30 13 C -2.049850 2.082312 0.492847 0
M  V30 14 O -2.772846 3.203358 0.572755 0
M  V30 15 C -2.542353 4.514589 0.833794 0
M  V30 16 C -2.029848 4.917669 2.173688 0
M  V30 17 F -2.964373 4.500543 3.110705 0
M  V30 18 F -0.811036 4.425291 2.461875 0
M  V30 19 F -2.047542 6.314307 2.196740 0
M  V30 20 C -2.940734 1.054333 0.209331 0
M  V30 21 C -2.514760 -0.270597 0.060365 0
M  V30 22 C -1.179651 -0.575831 0.195482 0
M  V30 23 O -0.551755 -1.754260 0.098637 0
M  V30 24 C -0.797682 -3.053926 -0.149421 0
M  V30 25 C -1.339176 -3.482272 -1.469789 0
M  V30 26 F -0.516673 -3.141328 -2.525826 0
M  V30 27 F -1.340961 -4.899241 -1.426343 0
M  V30 28 F -2.639246 -3.129343 -1.618314 0
M  V30 29 H 3.575531 -4.454970 3.917187 0
M  V30 30 H 2.317795 -4.997336 2.757351 0
M  V30 31 H 2.843523 -2.347716 2.394887 0
M  V30 32 H 5.244407 -1.709710 0.738463 0
M  V30 33 H 3.875387 -2.197955 -0.271834 0
M  V30 34 H 3.934433 0.288805 0.174793 0
M  V30 35 H 3.692950 -0.101561 1.894657 0
M  V30 36 H 1.644403 -1.618438 0.420809 0
M  V30 37 H -0.121594 2.597028 0.819387 0
M  V30 38 H -3.524797 5.076005 0.653271 0
M  V30 39 H -1.858154 5.009599 0.071765 0
M  V30 40 H -4.032550 1.082886 0.063643 0
M  V30 41 H -3.167676 -1.101015 -0.146257 0
M  V30 42 H 0.155201 -3.639122 0.065336 0
M  V30 43 H -1.485188 -3.452654 0.673608 0
M  V30 END ATOM
M  V30 BEGIN BOND
M  V30 1 2 1 2
M  V30 2 1 2 3
M  V30 3 1 3 4
M  V30 4 1 2 5
M  V30 5 1 5 6
M  V30 6 1 6 7
M  V30 7 1 7 8
M  V30 8 1 8 9
M  V30 9 2 9 10
M  V30 10 1 9 11
M  V30 11 2 11 12
M  V30 12 1 12 13
M  V30 13 1 13 14
M  V30 14 1 14 15
M  V30 15 1 15 16
M  V30 16 1 16 17
M  V30 17 1 16 18
M  V30 18 1 16 19
M  V30 19 2 13 20
M  V30 20 1 20 21
M  V30 21 2 21 22
M  V30 22 1 22 23
M  V30 23 1 23 24
M  V30 24 1 24 25
M  V30 25 1 25 26
M  V30 26 1 25 27
M  V30 27 1 25 28
M  V30 28 1 22 11
M  V30 29 1 3 29
M  V30 30 1 3 30
M  V30 31 1 5 31
M  V30 32 1 6 32
M  V30 33 1 6 33
M  V30 34 1 7 34
M  V30 35 1 7 35
M  V30 36 1 8 36
M  V30 37 1 12 37
M  V30 38 1 15 38
M  V30 39 1 15 39
M  V30 40 1 20 40
M  V30 41 1 21 41
M  V30 42 1 24 42
M  V30 43 1 24 43
M  V30 END BOND
M  V30 END CTAB
M  END
>  <Dataset>  (301) 
ChEMBL_Kinases

>  <Ligand_Instance>  (301) 
nan

>  <PDB_ID>  (301) 
nan

>  <Standardized_SMILES>  (301) 
O=C(CCl)NCCNC(=O)c1cc(OCC(F)(F)F)ccc1OCC(F)(F)F

>  <Name>  (301) 
nan

>  <Pocket>  (301) 
nan

>  <ATP_Site>  (301) 
nan

>  <Peripheral>  (301) 
nan

>  <Num_H_Atoms_ProtBoundConf>  (301) 
nan

>  <Num_Resolved_Atoms>  (301) 
nan

>  <Num_Not_Resolved_Atoms>  (301) 
nan

$$$$
CHEMBL1449309
     RDKit          3D

  0  0  0  0  0  0  0  0  0  0999 V3000
M  V30 BEGIN CTAB
M  V30 COUNTS 49 51 0 0 0
M  V30 BEGIN ATOM
M  V30 1 C -3.086490 -4.646272 -0.423420 0
M  V30 2 C -1.694074 -4.183806 -0.692063 0
M  V30 3 C -1.321355 -3.687197 -1.916075 0
M  V30 4 C -0.035064 -3.264122 -2.150983 0
M  V30 5 C 0.839830 -3.372563 -1.086242 0
M  V30 6 N 2.202689 -2.949229 -1.257076 0
M  V30 7 C 2.224459 -1.575232 -0.893806 0
M  V30 8 O 1.204048 -0.916119 -0.504599 0
M  V30 9 C 3.377439 -0.603837 -0.874204 0
M  V30 10 C 2.743662 0.708488 -0.391331 0
M  V30 11 N 1.705972 1.051540 -1.372450 0
M  V30 12 S 0.938651 2.526401 -0.899449 0
M  V30 13 O -0.061922 2.879141 -1.962860 0
M  V30 14 O 1.953307 3.625650 -0.834056 0
M  V30 15 C 0.157470 2.379612 0.642168 0
M  V30 16 C 0.825432 2.662929 1.831823 0
M  V30 17 C 0.085993 2.504966 2.992431 0
M  V30 18 C -1.233434 2.093400 2.998930 0
M  V30 19 C -1.868661 1.820931 1.819094 0
M  V30 20 C -1.164453 1.966615 0.638439 0
M  V30 21 O -3.102321 1.457180 2.160257 0
M  V30 22 C -3.221577 1.501838 3.463463 0
M  V30 23 O -4.306973 1.197325 4.010485 0
M  V30 24 N -2.072580 1.896352 4.032642 0
M  V30 25 C -1.870788 2.049080 5.461518 0
M  V30 26 C 0.493536 -3.862898 0.140375 0
M  V30 27 C 1.475914 -3.958237 1.253293 0
M  V30 28 C -0.799159 -4.286480 0.371504 0
M  V30 29 H -3.388523 -4.287284 0.603138 0
M  V30 30 H -3.178714 -5.737765 -0.423099 0
M  V30 31 H -3.735066 -4.115392 -1.141046 0
M  V30 32 H -2.038796 -3.615081 -2.737516 0
M  V30 33 H 0.262286 -2.872430 -3.113578 0
M  V30 34 H 3.149247 -3.283259 -1.543906 0
M  V30 35 H 4.121549 -0.901465 -0.128405 0
M  V30 36 H 3.775189 -0.468052 -1.886802 0
M  V30 37 H 3.479900 1.494773 -0.241276 0
M  V30 38 H 2.187759 0.545076 0.554252 0
M  V30 39 H 2.211653 1.180606 -2.261285 0
M  V30 40 H 1.858806 2.985306 1.826822 0
M  V30 41 H 0.601435 2.723855 3.915535 0
M  V30 42 H -1.677554 1.748272 -0.286679 0
M  V30 43 H -0.801091 1.986476 5.746328 0
M  V30 44 H -2.404840 1.237726 6.029404 0
M  V30 45 H -2.317618 2.998989 5.823416 0
M  V30 46 H 1.519617 -5.027254 1.553581 0
M  V30 47 H 1.152251 -3.382930 2.142925 0
M  V30 48 H 2.478819 -3.667133 0.923455 0
M  V30 49 H -1.052957 -4.665943 1.332526 0
M  V30 END ATOM
M  V30 BEGIN BOND
M  V30 1 1 1 2
M  V30 2 2 2 3
M  V30 3 1 3 4
M  V30 4 2 4 5
M  V30 5 1 5 6
M  V30 6 1 6 7
M  V30 7 2 7 8
M  V30 8 1 7 9
M  V30 9 1 9 10
M  V30 10 1 10 11
M  V30 11 1 11 12
M  V30 12 2 12 13
M  V30 13 2 12 14
M  V30 14 1 12 15
M  V30 15 2 15 16
M  V30 16 1 16 17
M  V30 17 2 17 18
M  V30 18 1 18 19
M  V30 19 2 19 20
M  V30 20 1 19 21
M  V30 21 1 21 22
M  V30 22 2 22 23
M  V30 23 1 22 24
M  V30 24 1 24 25
M  V30 25 1 5 26
M  V30 26 1 26 27
M  V30 27 2 26 28
M  V30 28 1 28 2
M  V30 29 1 20 15
M  V30 30 1 24 18
M  V30 31 1 1 29
M  V30 32 1 1 30
M  V30 33 1 1 31
M  V30 34 1 3 32
M  V30 35 1 4 33
M  V30 36 1 6 34
M  V30 37 1 9 35
M  V30 38 1 9 36
M  V30 39 1 10 37
M  V30 40 1 10 38
M  V30 41 1 11 39
M  V30 42 1 16 40
M  V30 43 1 17 41
M  V30 44 1 20 42
M  V30 45 1 25 43
M  V30 46 1 25 44
M  V30 47 1 25 45
M  V30 48 1 27 46
M  V30 49 1 27 47
M  V30 50 1 27 48
M  V30 51 1 28 49
M  V30 END BOND
M  V30 END CTAB
M  END
>  <Dataset>  (302) 
ChEMBL_Kinases

>  <Ligand_Instance>  (302) 
nan

>  <PDB_ID>  (302) 
nan

>  <Standardized_SMILES>  (302) 
Cc1ccc(NC(=O)CCNS(=O)(=O)c2ccc3c(c2)oc(=O)n3C)c(C)c1

>  <Name>  (302) 
nan

>  <Pocket>  (302) 
nan

>  <ATP_Site>  (302) 
nan

>  <Peripheral>  (302) 
nan

>  <Num_H_Atoms_ProtBoundConf>  (302) 
nan

>  <Num_Resolved_Atoms>  (302) 
nan

>  <Num_Not_Resolved_Atoms>  (302) 
nan

$$$$
CHEMBL1448974
     RDKit          3D

  0  0  0  0  0  0  0  0  0  0999 V3000
M  V30 BEGIN CTAB
M  V30 COUNTS 36 38 0 0 0
M  V30 BEGIN ATOM
M  V30 1 S -0.590736 -0.706431 3.094093 0
M  V30 2 C 0.992207 -0.503515 2.686841 0
M  V30 3 C 2.068294 -1.381788 3.184840 0
M  V30 4 S 3.158419 -2.051964 1.937173 0
M  V30 5 C 2.389460 -3.172671 0.809467 0
M  V30 6 C 2.185999 -4.521020 0.900063 0
M  V30 7 C 1.573501 -5.229382 -0.117707 0
M  V30 8 C 1.147957 -4.589708 -1.260634 0
M  V30 9 C 1.339060 -3.208124 -1.388630 0
M  V30 10 C 1.961100 -2.516350 -0.344167 0
M  V30 11 N 1.022747 0.622010 1.826904 0
M  V30 12 C 0.078102 1.538083 1.300737 0
M  V30 13 C 0.138238 2.772037 1.955000 0
M  V30 14 C -0.713158 3.793646 1.577841 0
M  V30 15 C -1.592078 3.538258 0.559800 0
M  V30 16 C -1.697960 2.349605 -0.119360 0
M  V30 17 C -2.561068 2.029242 -1.141850 0
M  V30 18 C -2.581882 0.791021 -1.748633 0
M  V30 19 C -1.696457 -0.210630 -1.328414 0
M  V30 20 C -0.838147 0.121097 -0.303893 0
M  V30 21 C -0.835716 1.362599 0.284947 0
M  V30 22 H 2.652388 -0.795118 3.936085 0
M  V30 23 H 1.543192 -2.217355 3.733563 0
M  V30 24 H 2.556169 -4.927814 1.837710 0
M  V30 25 H 1.453062 -6.312088 0.043045 0
M  V30 26 H 0.665627 -5.163728 -2.059941 0
M  V30 27 H 0.990176 -2.754999 -2.299998 0
M  V30 28 H 2.045125 -1.446634 -0.577287 0
M  V30 29 H 2.026906 0.753598 1.546930 0
M  V30 30 H 0.813849 3.024141 2.764721 0
M  V30 31 H -0.690591 4.757100 2.064565 0
M  V30 32 H -2.277214 4.322033 0.239032 0
M  V30 33 H -3.223782 2.857524 -1.420794 0
M  V30 34 H -3.328193 0.740408 -2.528711 0
M  V30 35 H -1.791893 -1.141233 -1.863829 0
M  V30 36 H -0.169036 -0.648725 0.015475 0
M  V30 END ATOM
M  V30 BEGIN BOND
M  V30 1 2 1 2
M  V30 2 1 2 3
M  V30 3 1 3 4
M  V30 4 1 4 5
M  V30 5 2 5 6
M  V30 6 1 6 7
M  V30 7 2 7 8
M  V30 8 1 8 9
M  V30 9 2 9 10
M  V30 10 1 2 11
M  V30 11 1 11 12
M  V30 12 2 12 13
M  V30 13 1 13 14
M  V30 14 2 14 15
M  V30 15 1 15 16
M  V30 16 2 16 17
M  V30 17 1 17 18
M  V30 18 2 18 19
M  V30 19 1 19 20
M  V30 20 2 20 21
M  V30 21 1 10 5
M  V30 22 1 21 12
M  V30 23 1 21 16
M  V30 24 1 3 22
M  V30 25 1 3 23
M  V30 26 1 6 24
M  V30 27 1 7 25
M  V30 28 1 8 26
M  V30 29 1 9 27
M  V30 30 1 10 28
M  V30 31 1 11 29
M  V30 32 1 13 30
M  V30 33 1 14 31
M  V30 34 1 15 32
M  V30 35 1 17 33
M  V30 36 1 18 34
M  V30 37 1 19 35
M  V30 38 1 20 36
M  V30 END BOND
M  V30 END CTAB
M  END
>  <Dataset>  (303) 
ChEMBL_Kinases

>  <Ligand_Instance>  (303) 
nan

>  <PDB_ID>  (303) 
nan

>  <Standardized_SMILES>  (303) 
S=C(CSc1ccccc1)Nc1cccc2ccccc12

>  <Name>  (303) 
nan

>  <Pocket>  (303) 
nan

>  <ATP_Site>  (303) 
nan

>  <Peripheral>  (303) 
nan

>  <Num_H_Atoms_ProtBoundConf>  (303) 
nan

>  <Num_Resolved_Atoms>  (303) 
nan

>  <Num_Not_Resolved_Atoms>  (303) 
nan

$$$$
CHEMBL1448839
     RDKit          3D

  0  0  0  0  0  0  0  0  0  0999 V3000
M  V30 BEGIN CTAB
M  V30 COUNTS 28 29 0 0 0
M  V30 BEGIN ATOM
M  V30 1 C -1.962988 -1.588008 4.105899 0
M  V30 2 O -0.624219 -1.928704 3.797703 0
M  V30 3 C -0.413215 -1.431371 2.536710 0
M  V30 4 C 0.951430 -1.661688 1.965036 0
M  V30 5 N 0.897683 -1.037656 0.634510 0
M  V30 6 C 0.510473 -1.761691 -0.432758 0
M  V30 7 O 0.188275 -2.973917 -0.325583 0
M  V30 8 C 0.474410 -1.135714 -1.663924 0
M  V30 9 C 0.055200 -1.866868 -2.905415 0
M  V30 10 N 0.826863 0.166750 -1.742635 0
M  V30 11 C 1.212862 0.883137 -0.669912 0
M  V30 12 C 1.578342 2.213633 -0.718718 0
M  V30 13 N 1.959739 2.896449 0.382061 0
M  V30 14 C 1.988073 2.272361 1.565249 0
M  V30 15 N 1.637198 0.960314 1.668771 0
M  V30 16 C 1.251634 0.260114 0.572175 0
M  V30 17 H -2.062872 -0.470166 4.070422 0
M  V30 18 H -2.290817 -1.982220 5.073490 0
M  V30 19 H -2.602907 -1.926057 3.240450 0
M  V30 20 H -1.121788 -1.989247 1.857341 0
M  V30 21 H -0.717335 -0.359464 2.410442 0
M  V30 22 H 1.755631 -1.223192 2.576458 0
M  V30 23 H 1.113589 -2.732651 1.789808 0
M  V30 24 H 0.041702 -2.954018 -2.643107 0
M  V30 25 H -1.011692 -1.586271 -3.140079 0
M  V30 26 H 0.735353 -1.741471 -3.743520 0
M  V30 27 H 1.553301 2.711787 -1.677188 0
M  V30 28 H 2.281681 2.732842 2.518923 0
M  V30 END ATOM
M  V30 BEGIN BOND
M  V30 1 1 1 2
M  V30 2 1 2 3
M  V30 3 1 3 4
M  V30 4 1 4 5
M  V30 5 1 5 6
M  V30 6 2 6 7
M  V30 7 1 6 8
M  V30 8 1 8 9
M  V30 9 2 8 10
M  V30 10 1 10 11
M  V30 11 2 11 12
M  V30 12 1 12 13
M  V30 13 2 13 14
M  V30 14 1 14 15
M  V30 15 2 15 16
M  V30 16 1 16 5
M  V30 17 1 16 11
M  V30 18 1 1 17
M  V30 19 1 1 18
M  V30 20 1 1 19
M  V30 21 1 3 20
M  V30 22 1 3 21
M  V30 23 1 4 22
M  V30 24 1 4 23
M  V30 25 1 9 24
M  V30 26 1 9 25
M  V30 27 1 9 26
M  V30 28 1 12 27
M  V30 29 1 14 28
M  V30 END BOND
M  V30 END CTAB
M  END
>  <Dataset>  (304) 
ChEMBL_Kinases

>  <Ligand_Instance>  (304) 
nan

>  <PDB_ID>  (304) 
nan

>  <Standardized_SMILES>  (304) 
COCCn1c(=O)c(C)nc2cncnc21

>  <Name>  (304) 
nan

>  <Pocket>  (304) 
nan

>  <ATP_Site>  (304) 
nan

>  <Peripheral>  (304) 
nan

>  <Num_H_Atoms_ProtBoundConf>  (304) 
nan

>  <Num_Resolved_Atoms>  (304) 
nan

>  <Num_Not_Resolved_Atoms>  (304) 
nan

$$$$
CHEMBL1448672
     RDKit          3D

  0  0  0  0  0  0  0  0  0  0999 V3000
M  V30 BEGIN CTAB
M  V30 COUNTS 29 31 0 0 0
M  V30 BEGIN ATOM
M  V30 1 O 0.389775 -2.631519 3.449866 0
M  V30 2 C -0.166153 -1.979514 2.511963 0
M  V30 3 N -0.552116 -2.619178 1.307359 0
M  V30 4 C -0.789858 -1.746005 0.174193 0
M  V30 5 C 0.420802 -1.536409 -0.662439 0
M  V30 6 C 1.664092 -1.268955 -0.126057 0
M  V30 7 C 2.811267 -1.068329 -0.864711 0
M  V30 8 C 2.720671 -1.138248 -2.251704 0
M  V30 9 Cl 4.177712 -0.883481 -3.191359 0
M  V30 10 C 1.491309 -1.405355 -2.852777 0
M  V30 11 C 0.405862 -1.590931 -2.040150 0
M  V30 12 N -1.340415 -0.473479 0.596144 0
M  V30 13 C -0.967410 0.217834 1.797348 0
M  V30 14 C -1.211428 1.563521 1.922457 0
M  V30 15 C -0.826054 2.165663 3.106702 0
M  V30 16 C -0.222518 1.390116 4.090627 0
M  V30 17 C 0.022442 0.041234 3.966044 0
M  V30 18 C -0.360108 -0.561338 2.788026 0
M  V30 19 H -0.638401 -3.659275 1.314987 0
M  V30 20 H -1.553243 -2.211722 -0.515398 0
M  V30 21 H 1.786461 -1.204466 0.946986 0
M  V30 22 H 3.768008 -0.860442 -0.396391 0
M  V30 23 H 1.446548 -1.454659 -3.932370 0
M  V30 24 H -0.539374 -1.797987 -2.547482 0
M  V30 25 H -2.067407 0.017083 0.014386 0
M  V30 26 H -1.684115 2.065614 1.098481 0
M  V30 27 H -1.008178 3.225707 3.228310 0
M  V30 28 H 0.060959 1.909285 5.000382 0
M  V30 29 H 0.483766 -0.557165 4.715272 0
M  V30 END ATOM
M  V30 BEGIN BOND
M  V30 1 2 1 2
M  V30 2 1 2 3
M  V30 3 1 3 4
M  V30 4 1 4 5
M  V30 5 2 5 6
M  V30 6 1 6 7
M  V30 7 2 7 8
M  V30 8 1 8 9
M  V30 9 1 8 10
M  V30 10 2 10 11
M  V30 11 1 4 12
M  V30 12 1 12 13
M  V30 13 2 13 14
M  V30 14 1 14 15
M  V30 15 2 15 16
M  V30 16 1 16 17
M  V30 17 2 17 18
M  V30 18 1 18 2
M  V30 19 1 11 5
M  V30 20 1 18 13
M  V30 21 1 3 19
M  V30 22 1 4 20
M  V30 23 1 6 21
M  V30 24 1 7 22
M  V30 25 1 10 23
M  V30 26 1 11 24
M  V30 27 1 12 25
M  V30 28 1 14 26
M  V30 29 1 15 27
M  V30 30 1 16 28
M  V30 31 1 17 29
M  V30 END BOND
M  V30 END CTAB
M  END
>  <Dataset>  (305) 
ChEMBL_Kinases

>  <Ligand_Instance>  (305) 
nan

>  <PDB_ID>  (305) 
nan

>  <Standardized_SMILES>  (305) 
O=C1NC(c2ccc(Cl)cc2)Nc2ccccc21

>  <Name>  (305) 
nan

>  <Pocket>  (305) 
nan

>  <ATP_Site>  (305) 
nan

>  <Peripheral>  (305) 
nan

>  <Num_H_Atoms_ProtBoundConf>  (305) 
nan

>  <Num_Resolved_Atoms>  (305) 
nan

>  <Num_Not_Resolved_Atoms>  (305) 
nan

$$$$
CHEMBL1448628
     RDKit          3D

  0  0  0  0  0  0  0  0  0  0999 V3000
M  V30 BEGIN CTAB
M  V30 COUNTS 38 39 0 0 0
M  V30 BEGIN ATOM
M  V30 1 C -2.178866 -2.638331 2.788347 0
M  V30 2 S -0.518926 -2.883010 3.292471 0
M  V30 3 O -0.202023 -2.024226 4.485758 0
M  V30 4 O -0.395983 -4.315647 3.757939 0
M  V30 5 N 0.651217 -2.616451 2.103055 0
M  V30 6 C 0.523034 -3.490066 0.984765 0
M  V30 7 C -0.093326 -2.687092 -0.140549 0
M  V30 8 C 0.961566 -1.729867 -0.657505 0
M  V30 9 C 1.715584 -1.132910 0.501892 0
M  V30 10 C 2.007484 0.301048 0.178231 0
M  V30 11 O 3.218322 0.682975 0.198440 0
M  V30 12 N 0.968076 1.233439 -0.148408 0
M  V30 13 C -0.474034 1.203137 -0.285217 0
M  V30 14 C -0.998965 2.449328 0.444595 0
M  V30 15 O -0.777790 3.537042 -0.403733 0
M  V30 16 C 0.385780 3.357096 -1.153412 0
M  V30 17 C 1.437923 2.599584 -0.426491 0
M  V30 18 C 1.018878 -1.289504 1.836650 0
M  V30 19 H -2.361335 -1.728785 2.208964 0
M  V30 20 H -2.821295 -2.562542 3.690056 0
M  V30 21 H -2.580294 -3.475111 2.180644 0
M  V30 22 H -0.190443 -4.306318 1.223972 0
M  V30 23 H 1.482924 -3.933408 0.727388 0
M  V30 24 H -0.482096 -3.369280 -0.910321 0
M  V30 25 H -0.892633 -2.081992 0.321898 0
M  V30 26 H 0.547193 -0.902906 -1.263595 0
M  V30 27 H 1.705203 -2.312597 -1.265905 0
M  V30 28 H 2.738860 -1.625696 0.593868 0
M  V30 29 H -0.954798 0.304949 0.127661 0
M  V30 30 H -0.706153 1.307514 -1.383210 0
M  V30 31 H -2.062377 2.378504 0.688974 0
M  V30 32 H -0.374396 2.570036 1.345537 0
M  V30 33 H 0.217939 2.939546 -2.150819 0
M  V30 34 H 0.790743 4.394865 -1.334685 0
M  V30 35 H 2.299962 2.483571 -1.125108 0
M  V30 36 H 1.788399 3.069818 0.493010 0
M  V30 37 H 1.822853 -1.006396 2.593321 0
M  V30 38 H 0.258513 -0.521449 1.963699 0
M  V30 END ATOM
M  V30 BEGIN BOND
M  V30 1 1 1 2
M  V30 2 2 2 3
M  V30 3 2 2 4
M  V30 4 1 2 5
M  V30 5 1 5 6
M  V30 6 1 6 7
M  V30 7 1 7 8
M  V30 8 1 8 9
M  V30 9 1 9 10
M  V30 10 2 10 11
M  V30 11 1 10 12
M  V30 12 1 12 13
M  V30 13 1 13 14
M  V30 14 1 14 15
M  V30 15 1 15 16
M  V30 16 1 16 17
M  V30 17 1 9 18
M  V30 18 1 18 5
M  V30 19 1 17 12
M  V30 20 1 1 19
M  V30 21 1 1 20
M  V30 22 1 1 21
M  V30 23 1 6 22
M  V30 24 1 6 23
M  V30 25 1 7 24
M  V30 26 1 7 25
M  V30 27 1 8 26
M  V30 28 1 8 27
M  V30 29 1 9 28
M  V30 30 1 13 29
M  V30 31 1 13 30
M  V30 32 1 14 31
M  V30 33 1 14 32
M  V30 34 1 16 33
M  V30 35 1 16 34
M  V30 36 1 17 35
M  V30 37 1 17 36
M  V30 38 1 18 37
M  V30 39 1 18 38
M  V30 END BOND
M  V30 END CTAB
M  END
>  <Dataset>  (306) 
ChEMBL_Kinases

>  <Ligand_Instance>  (306) 
nan

>  <PDB_ID>  (306) 
nan

>  <Standardized_SMILES>  (306) 
CS(=O)(=O)N1CCCC(C(=O)N2CCOCC2)C1

>  <Name>  (306) 
nan

>  <Pocket>  (306) 
nan

>  <ATP_Site>  (306) 
nan

>  <Peripheral>  (306) 
nan

>  <Num_H_Atoms_ProtBoundConf>  (306) 
nan

>  <Num_Resolved_Atoms>  (306) 
nan

>  <Num_Not_Resolved_Atoms>  (306) 
nan

$$$$
CHEMBL1448627
     RDKit          3D

  0  0  0  0  0  0  0  0  0  0999 V3000
M  V30 BEGIN CTAB
M  V30 COUNTS 132 141 0 0 0
M  V30 BEGIN ATOM
M  V30 1 C -10.986114 5.140278 -5.024400 0
M  V30 2 C -9.692312 4.832122 -5.220284 0
M  V30 3 C -9.757194 6.248018 -5.516995 0
M  V30 4 O -10.920500 6.695522 -5.377868 0
M  V30 5 C -9.287709 3.398430 -4.987015 0
M  V30 6 C -8.234545 3.321294 -3.914387 0 CFG=2
M  V30 7 C -6.993850 4.100382 -4.307666 0
M  V30 8 C -5.790310 3.144298 -4.283929 0 CFG=2
M  V30 9 O -6.178210 2.062984 -5.071323 0
M  V30 10 C -5.727214 2.698022 -2.810338 0
M  V30 11 O -4.560332 2.109438 -2.490657 0
M  V30 12 C -4.532043 0.859405 -1.963628 0
M  V30 13 C -3.172158 0.589713 -1.425020 0
M  V30 14 C -3.205051 -0.107371 -0.047802 0 CFG=2
M  V30 15 C -3.330171 0.993980 0.938160 0
M  V30 16 O -2.165048 -0.909639 -0.019403 0
M  V30 17 C -1.276540 -1.200429 0.865358 0
M  V30 18 C -1.481990 -0.980840 2.305633 0
M  V30 19 C -0.597782 -1.184954 3.300462 0
M  V30 20 C 0.744830 -1.609992 3.698654 0
M  V30 21 C 1.752411 -1.702104 2.564018 0
M  V30 22 O 2.904734 -2.214799 3.120917 0
M  V30 23 C 4.079407 -1.527970 2.878975 0
M  V30 24 C 5.204725 -2.505267 3.139566 0
M  V30 25 C 4.712323 -3.796296 2.438362 0
M  V30 26 C 3.591245 -4.358107 3.203154 0
M  V30 27 C 2.408874 -4.355212 2.652756 0
M  V30 28 C 2.092164 -3.834048 1.318217 0
M  V30 29 C 1.175171 -2.592107 1.455052 0
M  V30 30 O -0.073698 -2.986277 1.799705 0
M  V30 31 C -1.027339 -2.723502 0.782566 0
M  V30 32 C -2.312923 -3.390110 1.265021 0
M  V30 33 C -3.453218 -3.250098 0.317270 0
M  V30 34 C -4.379992 -2.167525 0.813862 0
M  V30 35 C -4.432540 -0.993311 -0.136628 0
M  V30 36 O -5.600136 -0.296527 -0.101898 0
M  V30 37 C -5.669398 0.714759 -1.007274 0
M  V30 38 C -6.894501 0.628933 -1.937495 0
M  V30 39 C -7.007198 2.033391 -2.496759 0
M  V30 40 O -7.887076 2.025949 -3.582214 0
M  V30 41 O 6.424656 -2.226468 2.780356 0
M  V30 42 C 6.792968 -1.162983 2.035690 0
M  V30 43 C 6.787349 -1.422166 0.538517 0
M  V30 44 C 7.008786 -0.130922 -0.203961 0
M  V30 45 O 6.917695 -0.256056 -1.565415 0
M  V30 46 C 6.478987 -1.443483 -2.065196 0
M  V30 47 C 6.936176 -1.512639 -3.527962 0
M  V30 48 C 5.732715 -1.100620 -4.309112 0
M  V30 49 O 5.540497 -0.427995 -5.353630 0
M  V30 50 O 4.687166 -1.681015 -3.565352 0
M  V30 51 C 5.014521 -1.633127 -2.179686 0
M  V30 52 C 4.164204 -0.532644 -1.579403 0
M  V30 53 C 4.645907 0.833908 -1.870666 0 CFG=1
M  V30 54 C 3.423593 1.643548 -2.347045 0
M  V30 55 C 5.279598 1.617222 -0.814489 0
M  V30 56 C 6.119582 0.995224 0.223856 0 CFG=2
M  V30 57 C 7.043887 2.117316 0.726777 0
M  V30 58 O 5.354852 0.655793 1.365403 0
M  V30 59 C 6.189117 0.167359 2.383465 0
M  V30 60 C 5.526633 0.235072 3.719103 0
M  V30 61 C 4.135343 -0.337068 3.772826 0 CFG=2
M  V30 62 C 3.932888 -0.791738 5.223219 0
M  V30 63 H -11.983117 4.767377 -4.740402 0
M  V30 64 H -12.067485 5.253432 -4.838175 0
M  V30 65 H -8.750851 6.525815 -5.782838 0
M  V30 66 H -10.170163 2.785993 -4.758781 0
M  V30 67 H -8.862131 3.030653 -5.944135 0
M  V30 68 H -8.711269 3.754996 -2.994757 0
M  V30 69 H -7.096503 4.577929 -5.291922 0
M  V30 70 H -6.790168 4.818739 -3.487517 0
M  V30 71 H -4.884032 3.652061 -4.610282 0
M  V30 72 H -5.496435 1.941743 -5.789384 0
M  V30 73 H -5.723531 3.697119 -2.271008 0
M  V30 74 H -4.706674 0.143056 -2.816912 0
M  V30 75 H -2.599914 1.554396 -1.304738 0
M  V30 76 H -2.568453 0.014983 -2.155771 0
M  V30 77 H -4.093375 0.809375 1.725130 0
M  V30 78 H -2.345724 1.327888 1.335310 0
M  V30 79 H -3.704566 1.957555 0.473331 0
M  V30 80 H -0.303936 -0.747424 0.565870 0
M  V30 81 H -2.432824 -0.614446 2.700874 0
M  V30 82 H -1.088782 -0.912747 4.255907 0
M  V30 83 H 0.754591 -2.622940 4.191711 0
M  V30 84 H 1.152832 -0.932014 4.478903 0
M  V30 85 H 1.963465 -0.686570 2.223539 0
M  V30 86 H 4.024833 -1.192927 1.840199 0
M  V30 87 H 5.138137 -2.751143 4.215587 0
M  V30 88 H 4.613737 -3.719274 1.386723 0
M  V30 89 H 5.589077 -4.502488 2.619496 0
M  V30 90 H 3.734473 -4.764820 4.196659 0
M  V30 91 H 1.540467 -4.759500 3.176209 0
M  V30 92 H 2.910388 -3.673608 0.623484 0
M  V30 93 H 1.423080 -4.586560 0.781403 0
M  V30 94 H 1.184793 -2.094944 0.475287 0
M  V30 95 H -0.705361 -3.041924 -0.205122 0
M  V30 96 H -2.081396 -4.447903 1.551108 0
M  V30 97 H -2.524849 -2.883891 2.252478 0
M  V30 98 H -3.148971 -3.098459 -0.738974 0
M  V30 99 H -3.956944 -4.261086 0.296481 0
M  V30 100 H -5.419283 -2.610574 0.746747 0
M  V30 101 H -4.266665 -1.904208 1.865083 0
M  V30 102 H -4.390873 -1.479385 -1.158532 0
M  V30 103 H -5.887942 1.654792 -0.417010 0
M  V30 104 H -6.613307 -0.099250 -2.736301 0
M  V30 105 H -7.807553 0.364153 -1.404550 0
M  V30 106 H -7.555683 2.607321 -1.689776 0
M  V30 107 H 7.900700 -1.058998 2.264840 0
M  V30 108 H 5.899479 -1.985493 0.214109 0
M  V30 109 H 7.645149 -2.090785 0.309976 0
M  V30 110 H 8.106477 0.087611 -0.026955 0
M  V30 111 H 7.004446 -2.333099 -1.606633 0
M  V30 112 H 7.129447 -2.568779 -3.841467 0
M  V30 113 H 7.813877 -0.893020 -3.731688 0
M  V30 114 H 4.667883 -2.599244 -1.758520 0
M  V30 115 H 3.142772 -0.733083 -2.023573 0
M  V30 116 H 3.993699 -0.670543 -0.499073 0
M  V30 117 H 5.259075 0.804240 -2.820519 0
M  V30 118 H 2.755360 1.006316 -2.965459 0
M  V30 119 H 3.780656 2.538392 -2.897273 0
M  V30 120 H 2.878593 1.956825 -1.453625 0
M  V30 121 H 5.871579 2.432470 -1.329037 0
M  V30 122 H 4.496894 2.215161 -0.258122 0
M  V30 123 H 6.598119 2.724944 1.509496 0
M  V30 124 H 7.227801 2.842174 -0.123232 0
M  V30 125 H 8.072875 1.736525 0.935863 0
M  V30 126 H 6.983591 0.973254 2.463400 0
M  V30 127 H 5.454786 1.269566 4.086070 0
M  V30 128 H 6.173577 -0.315665 4.444982 0
M  V30 129 H 3.416319 0.433183 3.509343 0
M  V30 130 H 3.114733 -0.160909 5.668633 0
M  V30 131 H 4.859414 -0.751241 5.815527 0
M  V30 132 H 3.567777 -1.844118 5.277728 0
M  V30 END ATOM
M  V30 BEGIN BOND
M  V30 1 2 1 2
M  V30 2 1 2 3
M  V30 3 2 3 4
M  V30 4 1 2 5
M  V30 5 1 5 6
M  V30 6 1 6 7
M  V30 7 1 7 8
M  V30 8 1 8 9
M  V30 9 1 8 10
M  V30 10 1 10 11
M  V30 11 1 11 12
M  V30 12 1 12 13
M  V30 13 1 13 14
M  V30 14 1 14 15 CFG=1
M  V30 15 1 14 16
M  V30 16 1 16 17
M  V30 17 1 17 18
M  V30 18 2 18 19
M  V30 19 1 19 20
M  V30 20 1 20 21
M  V30 21 1 21 22
M  V30 22 1 22 23
M  V30 23 1 23 24
M  V30 24 1 24 25
M  V30 25 1 25 26
M  V30 26 2 26 27 CFG=2
M  V30 27 1 27 28
M  V30 28 1 28 29
M  V30 29 1 29 30
M  V30 30 1 30 31
M  V30 31 1 31 32
M  V30 32 1 32 33
M  V30 33 1 33 34
M  V30 34 1 34 35
M  V30 35 1 35 36
M  V30 36 1 36 37
M  V30 37 1 37 38
M  V30 38 1 38 39
M  V30 39 1 39 40
M  V30 40 1 24 41
M  V30 41 1 41 42
M  V30 42 1 42 43
M  V30 43 1 43 44
M  V30 44 1 44 45
M  V30 45 1 45 46
M  V30 46 1 46 47
M  V30 47 1 47 48
M  V30 48 2 48 49
M  V30 49 1 48 50
M  V30 50 1 50 51
M  V30 51 1 51 52
M  V30 52 1 52 53
M  V30 53 1 53 54
M  V30 54 1 53 55
M  V30 55 1 55 56
M  V30 56 1 56 57 CFG=1
M  V30 57 1 56 58
M  V30 58 1 58 59
M  V30 59 1 59 60
M  V30 60 1 60 61
M  V30 61 1 61 62
M  V30 62 1 40 6
M  V30 63 1 59 42
M  V30 64 1 39 10
M  V30 65 1 56 44
M  V30 66 1 37 12
M  V30 67 1 51 46
M  V30 68 1 35 14
M  V30 69 1 31 17
M  V30 70 1 29 21
M  V30 71 1 61 23
M  V30 72 1 1 63
M  V30 73 1 1 64
M  V30 74 1 3 65
M  V30 75 1 5 66
M  V30 76 1 5 67
M  V30 77 1 6 68 CFG=1
M  V30 78 1 7 69
M  V30 79 1 7 70
M  V30 80 1 8 71 CFG=3
M  V30 81 1 9 72
M  V30 82 1 10 73
M  V30 83 1 12 74
M  V30 84 1 13 75
M  V30 85 1 13 76
M  V30 86 1 15 77
M  V30 87 1 15 78
M  V30 88 1 15 79
M  V30 89 1 17 80
M  V30 90 1 18 81
M  V30 91 1 19 82
M  V30 92 1 20 83
M  V30 93 1 20 84
M  V30 94 1 21 85
M  V30 95 1 23 86
M  V30 96 1 24 87
M  V30 97 1 25 88
M  V30 98 1 25 89
M  V30 99 1 26 90
M  V30 100 1 27 91
M  V30 101 1 28 92
M  V30 102 1 28 93
M  V30 103 1 29 94
M  V30 104 1 31 95
M  V30 105 1 32 96
M  V30 106 1 32 97
M  V30 107 1 33 98
M  V30 108 1 33 99
M  V30 109 1 34 100
M  V30 110 1 34 101
M  V30 111 1 35 102
M  V30 112 1 37 103
M  V30 113 1 38 104
M  V30 114 1 38 105
M  V30 115 1 39 106
M  V30 116 1 42 107
M  V30 117 1 43 108
M  V30 118 1 43 109
M  V30 119 1 44 110
M  V30 120 1 46 111
M  V30 121 1 47 112
M  V30 122 1 47 113
M  V30 123 1 51 114
M  V30 124 1 52 115
M  V30 125 1 52 116
M  V30 126 1 53 117 CFG=3
M  V30 127 1 54 118
M  V30 128 1 54 119
M  V30 129 1 54 120
M  V30 130 1 55 121
M  V30 131 1 55 122
M  V30 132 1 57 123
M  V30 133 1 57 124
M  V30 134 1 57 125
M  V30 135 1 59 126
M  V30 136 1 60 127
M  V30 137 1 60 128
M  V30 138 1 61 129 CFG=3
M  V30 139 1 62 130
M  V30 140 1 62 131
M  V30 141 1 62 132
M  V30 END BOND
M  V30 END CTAB
M  END
>  <Dataset>  (307) 
ChEMBL_Kinases

>  <Ligand_Instance>  (307) 
nan

>  <PDB_ID>  (307) 
nan

>  <Standardized_SMILES>  (307) 
C=C(C=O)C[C@@H]1C[C@H](O)C2OC3C[C@]4(C)OC5/C=C\CC6OC7C(CC=CCC6OC5CCCC4OC3CC2O1)OC1CC2OC3CC(=O)OC3C[C@@H](C)C[C@@]2(C)OC1C[C@@H]7C

>  <Name>  (307) 
nan

>  <Pocket>  (307) 
nan

>  <ATP_Site>  (307) 
nan

>  <Peripheral>  (307) 
nan

>  <Num_H_Atoms_ProtBoundConf>  (307) 
nan

>  <Num_Resolved_Atoms>  (307) 
nan

>  <Num_Not_Resolved_Atoms>  (307) 
nan

$$$$
CHEMBL1448605
     RDKit          3D

  0  0  0  0  0  0  0  0  0  0999 V3000
M  V30 BEGIN CTAB
M  V30 COUNTS 27 28 0 0 0
M  V30 BEGIN ATOM
M  V30 1 C -2.758648 -1.862445 2.096906 0
M  V30 2 C -1.855578 -2.194586 3.244044 0
M  V30 3 N -0.697495 -2.972733 2.888673 0
M  V30 4 C 0.308042 -2.508808 1.935477 0
M  V30 5 N 1.272292 -2.789453 1.431903 0
M  V30 6 C 1.999290 -2.128573 0.558656 0
M  V30 7 N 3.223644 -2.630764 0.001746 0
M  V30 8 C 1.555781 -0.954910 0.199332 0
M  V30 9 C 2.014369 0.112383 -0.719449 0
M  V30 10 O 3.083168 -0.108255 -1.328752 0
M  V30 11 C 1.209480 1.351389 -0.867540 0
M  V30 12 C 1.426772 2.418025 -1.620247 0
M  V30 13 C 0.550436 3.439596 -1.596232 0
M  V30 14 C -0.557046 3.304076 -0.758819 0
M  V30 15 Cl -1.879685 4.647898 -0.610545 0
M  V30 16 S -0.266183 1.594143 0.008771 0
M  V30 17 S 0.044866 -0.815206 1.158137 0
M  V30 18 H -2.628998 -0.800018 1.746585 0
M  V30 19 H -2.697926 -2.589569 1.263146 0
M  V30 20 H -3.815663 -1.904276 2.474803 0
M  V30 21 H -1.476528 -1.221124 3.638226 0
M  V30 22 H -2.381669 -2.707033 4.045357 0
M  V30 23 H -0.444933 -3.897640 3.238373 0
M  V30 24 H 4.235110 -2.377378 0.207988 0
M  V30 25 H 3.408217 -3.349491 -0.723371 0
M  V30 26 H 2.325267 2.440912 -2.250379 0
M  V30 27 H 0.649279 4.359478 -2.184557 0
M  V30 END ATOM
M  V30 BEGIN BOND
M  V30 1 1 1 2
M  V30 2 1 2 3
M  V30 3 1 3 4
M  V30 4 2 4 5
M  V30 5 1 5 6
M  V30 6 1 6 7
M  V30 7 2 6 8
M  V30 8 1 8 9
M  V30 9 2 9 10
M  V30 10 1 9 11
M  V30 11 2 11 12
M  V30 12 1 12 13
M  V30 13 2 13 14
M  V30 14 1 14 15
M  V30 15 1 14 16
M  V30 16 1 8 17
M  V30 17 1 17 4
M  V30 18 1 16 11
M  V30 19 1 1 18
M  V30 20 1 1 19
M  V30 21 1 1 20
M  V30 22 1 2 21
M  V30 23 1 2 22
M  V30 24 1 3 23
M  V30 25 1 7 24
M  V30 26 1 7 25
M  V30 27 1 12 26
M  V30 28 1 13 27
M  V30 END BOND
M  V30 END CTAB
M  END
>  <Dataset>  (308) 
ChEMBL_Kinases

>  <Ligand_Instance>  (308) 
nan

>  <PDB_ID>  (308) 
nan

>  <Standardized_SMILES>  (308) 
CCNc1nc(N)c(C(=O)c2ccc(Cl)s2)s1

>  <Name>  (308) 
nan

>  <Pocket>  (308) 
nan

>  <ATP_Site>  (308) 
nan

>  <Peripheral>  (308) 
nan

>  <Num_H_Atoms_ProtBoundConf>  (308) 
nan

>  <Num_Resolved_Atoms>  (308) 
nan

>  <Num_Not_Resolved_Atoms>  (308) 
nan

$$$$
CHEMBL1448441
     RDKit          3D

  0  0  0  0  0  0  0  0  0  0999 V3000
M  V30 BEGIN CTAB
M  V30 COUNTS 45 47 0 0 0
M  V30 BEGIN ATOM
M  V30 1 O 0.336707 -3.788584 -0.789203 0
M  V30 2 C 0.407475 -2.808203 -1.605719 0
M  V30 3 C 0.551041 -3.074404 -3.039906 0
M  V30 4 N 0.618463 -1.871754 -3.844902 0
M  V30 5 C 1.815474 -1.157413 -4.201570 0
M  V30 6 O 2.966409 -1.565993 -3.883900 0
M  V30 7 C 1.521819 0.081307 -4.966746 0
M  V30 8 C 0.062980 -0.074349 -5.337495 0
M  V30 9 C -0.436756 -1.143984 -4.447007 0
M  V30 10 O -1.637898 -1.433834 -4.202785 0
M  V30 11 N 0.354767 -1.442310 -1.204106 0
M  V30 12 C 0.231855 -0.636906 -0.033460 0
M  V30 13 C 1.389630 -0.259756 0.617649 0
M  V30 14 C 1.295079 0.520688 1.753467 0
M  V30 15 C 0.029892 0.893206 2.191991 0
M  V30 16 S -0.037575 1.881288 3.633159 0
M  V30 17 O -1.299251 2.727503 3.610012 0
M  V30 18 O 1.108111 2.844264 3.710764 0
M  V30 19 N -0.135157 0.905146 5.043394 0
M  V30 20 C -1.287045 0.090227 5.102650 0
M  V30 21 C -1.205982 -1.143114 5.920644 0
M  V30 22 O 0.066058 -1.682637 6.059019 0
M  V30 23 C 0.958393 -0.702581 6.500729 0
M  V30 24 C 1.110697 0.262075 5.361672 0
M  V30 25 C -1.114186 0.505571 1.526700 0
M  V30 26 C -1.041863 -0.273282 0.391333 0
M  V30 27 H -0.275966 -3.727302 -3.417120 0
M  V30 28 H 1.510454 -3.618306 -3.229268 0
M  V30 29 H 1.690805 0.995528 -4.358022 0
M  V30 30 H 2.156805 0.167723 -5.854996 0
M  V30 31 H -0.472426 0.873805 -5.122508 0
M  V30 32 H -0.010395 -0.364283 -6.417374 0
M  V30 33 H 0.416632 -0.677246 -1.909110 0
M  V30 34 H 2.339217 -0.586096 0.220123 0
M  V30 35 H 2.234258 0.776025 2.207561 0
M  V30 36 H -2.135949 0.716576 5.506797 0
M  V30 37 H -1.604518 -0.110033 4.037364 0
M  V30 38 H -1.838161 -1.928267 5.453754 0
M  V30 39 H -1.629609 -0.985124 6.953336 0
M  V30 40 H 0.630391 -0.201993 7.436708 0
M  V30 41 H 1.937853 -1.210349 6.665979 0
M  V30 42 H 1.893133 1.013118 5.487912 0
M  V30 43 H 1.366888 -0.370346 4.462959 0
M  V30 44 H -2.084375 0.793922 1.866636 0
M  V30 45 H -1.925341 -0.582525 -0.136967 0
M  V30 END ATOM
M  V30 BEGIN BOND
M  V30 1 2 1 2
M  V30 2 1 2 3
M  V30 3 1 3 4
M  V30 4 1 4 5
M  V30 5 2 5 6
M  V30 6 1 5 7
M  V30 7 1 7 8
M  V30 8 1 8 9
M  V30 9 2 9 10
M  V30 10 1 2 11
M  V30 11 1 11 12
M  V30 12 2 12 13
M  V30 13 1 13 14
M  V30 14 2 14 15
M  V30 15 1 15 16
M  V30 16 2 16 17
M  V30 17 2 16 18
M  V30 18 1 16 19
M  V30 19 1 19 20
M  V30 20 1 20 21
M  V30 21 1 21 22
M  V30 22 1 22 23
M  V30 23 1 23 24
M  V30 24 1 15 25
M  V30 25 2 25 26
M  V30 26 1 9 4
M  V30 27 1 26 12
M  V30 28 1 24 19
M  V30 29 1 3 27
M  V30 30 1 3 28
M  V30 31 1 7 29
M  V30 32 1 7 30
M  V30 33 1 8 31
M  V30 34 1 8 32
M  V30 35 1 11 33
M  V30 36 1 13 34
M  V30 37 1 14 35
M  V30 38 1 20 36
M  V30 39 1 20 37
M  V30 40 1 21 38
M  V30 41 1 21 39
M  V30 42 1 23 40
M  V30 43 1 23 41
M  V30 44 1 24 42
M  V30 45 1 24 43
M  V30 46 1 25 44
M  V30 47 1 26 45
M  V30 END BOND
M  V30 END CTAB
M  END
>  <Dataset>  (309) 
ChEMBL_Kinases

>  <Ligand_Instance>  (309) 
nan

>  <PDB_ID>  (309) 
nan

>  <Standardized_SMILES>  (309) 
O=C(CN1C(=O)CCC1=O)Nc1ccc(S(=O)(=O)N2CCOCC2)cc1

>  <Name>  (309) 
nan

>  <Pocket>  (309) 
nan

>  <ATP_Site>  (309) 
nan

>  <Peripheral>  (309) 
nan

>  <Num_H_Atoms_ProtBoundConf>  (309) 
nan

>  <Num_Resolved_Atoms>  (309) 
nan

>  <Num_Not_Resolved_Atoms>  (309) 
nan

$$$$
CHEMBL145
     RDKit          3D

  0  0  0  0  0  0  0  0  0  0999 V3000
M  V30 BEGIN CTAB
M  V30 COUNTS 21 21 0 0 0
M  V30 BEGIN ATOM
M  V30 1 O 2.458088 -0.915257 5.123506 0
M  V30 2 C 1.983771 -0.082479 4.282899 0
M  V30 3 O 2.310166 0.525470 5.456906 0
M  V30 4 C 1.532640 -0.385422 2.931171 0
M  V30 5 C 1.055839 0.555198 2.138307 0
M  V30 6 C 0.616911 0.206734 0.796036 0
M  V30 7 C 0.636221 -1.025288 0.225922 0
M  V30 8 C 0.201130 -1.280187 -1.059015 0
M  V30 9 C -0.281641 -0.262799 -1.828937 0
M  V30 10 O -0.712379 -0.526554 -3.106790 0
M  V30 11 C -0.326713 1.012148 -1.305635 0
M  V30 12 O -0.816499 2.061697 -2.077957 0
M  V30 13 C 0.116458 1.206826 -0.029601 0
M  V30 14 H 1.909082 1.427398 5.679982 0
M  V30 15 H 1.636444 -1.428606 2.681006 0
M  V30 16 H 0.997606 1.557040 2.488790 0
M  V30 17 H 1.012589 -1.854572 0.807932 0
M  V30 18 H 0.243732 -2.292786 -1.456546 0
M  V30 19 H -0.804208 -1.447305 -3.470653 0
M  V30 20 H -1.779615 2.000931 -2.441955 0
M  V30 21 H 0.058217 2.232979 0.333187 0
M  V30 END ATOM
M  V30 BEGIN BOND
M  V30 1 2 1 2
M  V30 2 1 2 3
M  V30 3 1 2 4
M  V30 4 2 4 5
M  V30 5 1 5 6
M  V30 6 2 6 7
M  V30 7 1 7 8
M  V30 8 2 8 9
M  V30 9 1 9 10
M  V30 10 1 9 11
M  V30 11 1 11 12
M  V30 12 2 11 13
M  V30 13 1 13 6
M  V30 14 1 3 14
M  V30 15 1 4 15
M  V30 16 1 5 16
M  V30 17 1 7 17
M  V30 18 1 8 18
M  V30 19 1 10 19
M  V30 20 1 12 20
M  V30 21 1 13 21
M  V30 END BOND
M  V30 END CTAB
M  END
>  <Dataset>  (310) 
ChEMBL_Kinases

>  <Ligand_Instance>  (310) 
nan

>  <PDB_ID>  (310) 
nan

>  <Standardized_SMILES>  (310) 
O=C(O)/C=C/c1ccc(O)c(O)c1

>  <Name>  (310) 
CAFFEIC ACID

>  <Pocket>  (310) 
nan

>  <ATP_Site>  (310) 
nan

>  <Peripheral>  (310) 
nan

>  <Num_H_Atoms_ProtBoundConf>  (310) 
nan

>  <Num_Resolved_Atoms>  (310) 
nan

>  <Num_Not_Resolved_Atoms>  (310) 
nan

$$$$
CHEMBL1455400
     RDKit          3D

  0  0  0  0  0  0  0  0  0  0999 V3000
M  V30 BEGIN CTAB
M  V30 COUNTS 40 42 0 0 0
M  V30 BEGIN ATOM
M  V30 1 C 3.611685 -2.353479 5.721875 0
M  V30 2 C 4.695122 -2.463390 4.710366 0
M  V30 3 O 5.826156 -2.817794 5.131424 0
M  V30 4 C 4.480032 -2.179901 3.298736 0
M  V30 5 C 5.559843 -2.315376 2.450501 0
M  V30 6 C 5.389884 -2.051740 1.093358 0
M  V30 7 C 4.131312 -1.667412 0.689118 0
M  V30 8 C 3.060930 -1.531812 1.521833 0
M  V30 9 N 1.827870 -1.126680 0.948433 0
M  V30 10 C 1.347176 0.199923 0.773523 0
M  V30 11 O 2.007357 1.208982 1.131506 0
M  V30 12 C 0.048907 0.467130 0.163203 0
M  V30 13 C -0.360425 1.776185 0.020393 0
M  V30 14 C -1.590411 2.119339 -0.553980 0
M  V30 15 C -2.446792 1.117102 -1.004083 0
M  V30 16 O -3.640721 1.556794 -1.557248 0
M  V30 17 C -4.652191 0.739958 -2.074157 0
M  V30 18 C -5.197821 1.165136 -3.420576 0
M  V30 19 S -6.746068 0.310705 -3.014923 0
M  V30 20 C -6.040912 1.022550 -1.487286 0
M  V30 21 C -2.039986 -0.194238 -0.862606 0
M  V30 22 C -0.822412 -0.501043 -0.292694 0
M  V30 23 C 3.219708 -1.792266 2.876865 0
M  V30 24 H 3.434522 -1.292785 5.996232 0
M  V30 25 H 3.834979 -2.964041 6.610435 0
M  V30 26 H 2.665064 -2.714272 5.271141 0
M  V30 27 H 6.535180 -2.626586 2.845550 0
M  V30 28 H 6.247469 -2.165003 0.454573 0
M  V30 29 H 4.034105 -1.470876 -0.368729 0
M  V30 30 H 1.274855 -1.959299 0.649158 0
M  V30 31 H 0.244679 2.610539 0.343527 0
M  V30 32 H -1.868780 3.174362 -0.644414 0
M  V30 33 H -4.483489 -0.340768 -2.038871 0
M  V30 34 H -4.631419 0.680094 -4.266193 0
M  V30 35 H -5.370104 2.236022 -3.533045 0
M  V30 36 H -6.208306 2.099019 -1.355590 0
M  V30 37 H -6.292374 0.368357 -0.644098 0
M  V30 38 H -2.721649 -0.950905 -1.219288 0
M  V30 39 H -0.528577 -1.536966 -0.194013 0
M  V30 40 H 2.369080 -1.684008 3.535868 0
M  V30 END ATOM
M  V30 BEGIN BOND
M  V30 1 1 1 2
M  V30 2 2 2 3
M  V30 3 1 2 4
M  V30 4 2 4 5
M  V30 5 1 5 6
M  V30 6 2 6 7
M  V30 7 1 7 8
M  V30 8 1 8 9
M  V30 9 1 9 10
M  V30 10 2 10 11
M  V30 11 1 10 12
M  V30 12 2 12 13
M  V30 13 1 13 14
M  V30 14 2 14 15
M  V30 15 1 15 16
M  V30 16 1 16 17
M  V30 17 1 17 18
M  V30 18 1 18 19
M  V30 19 1 19 20
M  V30 20 1 15 21
M  V30 21 2 21 22
M  V30 22 2 8 23
M  V30 23 1 23 4
M  V30 24 1 22 12
M  V30 25 1 20 17
M  V30 26 1 1 24
M  V30 27 1 1 25
M  V30 28 1 1 26
M  V30 29 1 5 27
M  V30 30 1 6 28
M  V30 31 1 7 29
M  V30 32 1 9 30
M  V30 33 1 13 31
M  V30 34 1 14 32
M  V30 35 1 17 33
M  V30 36 1 18 34
M  V30 37 1 18 35
M  V30 38 1 20 36
M  V30 39 1 20 37
M  V30 40 1 21 38
M  V30 41 1 22 39
M  V30 42 1 23 40
M  V30 END BOND
M  V30 END CTAB
M  END
>  <Dataset>  (311) 
ChEMBL_Kinases

>  <Ligand_Instance>  (311) 
nan

>  <PDB_ID>  (311) 
nan

>  <Standardized_SMILES>  (311) 
CC(=O)c1cccc(NC(=O)c2ccc(OC3CSC3)cc2)c1

>  <Name>  (311) 
nan

>  <Pocket>  (311) 
nan

>  <ATP_Site>  (311) 
nan

>  <Peripheral>  (311) 
nan

>  <Num_H_Atoms_ProtBoundConf>  (311) 
nan

>  <Num_Resolved_Atoms>  (311) 
nan

>  <Num_Not_Resolved_Atoms>  (311) 
nan

$$$$
CHEMBL1455126
     RDKit          3D

  0  0  0  0  0  0  0  0  0  0999 V3000
M  V30 BEGIN CTAB
M  V30 COUNTS 58 61 0 0 0
M  V30 BEGIN ATOM
M  V30 1 C 3.101734 -1.551742 6.969533 0
M  V30 2 C 3.034862 -1.476864 5.492221 0
M  V30 3 O 2.426766 -2.343217 4.814553 0
M  V30 4 N 3.671522 -0.399149 4.795353 0
M  V30 5 C 4.420993 0.699483 5.374890 0
M  V30 6 C 4.033916 1.841955 4.437212 0
M  V30 7 C 3.898360 1.133051 3.128254 0
M  V30 8 C 3.952073 1.577392 1.821969 0
M  V30 9 C 3.788286 0.671680 0.794060 0
M  V30 10 S 3.839870 1.140642 -0.910780 0
M  V30 11 O 4.670626 2.354974 -1.129953 0
M  V30 12 O 4.231024 -0.034644 -1.723389 0
M  V30 13 N 2.192381 1.533524 -1.322508 0
M  V30 14 C 1.338179 0.366211 -1.152750 0
M  V30 15 C -0.091372 0.716996 -1.512738 0
M  V30 16 C -1.002827 -0.432094 -1.358736 0
M  V30 17 O -0.395185 -1.460084 -0.961643 0
M  V30 18 N -2.378336 -0.235543 -1.664091 0
M  V30 19 C -3.283403 -1.319536 -1.526911 0
M  V30 20 C -4.385990 -1.075894 -0.511145 0
M  V30 21 C -4.872120 -2.439226 -0.066911 0
M  V30 22 C -4.770396 -3.437127 -1.166410 0
M  V30 23 C -4.782122 -2.868772 -2.528360 0
M  V30 24 C -5.532579 -3.416101 -3.562607 0
M  V30 25 C -5.480348 -2.817237 -4.799254 0
M  V30 26 C -4.697969 -1.683511 -5.035060 0
M  V30 27 C -3.951010 -1.138895 -4.005248 0
M  V30 28 C -3.994785 -1.730535 -2.759407 0
M  V30 29 C 3.570509 -0.680661 1.076340 0
M  V30 30 C 3.514231 -1.140486 2.380243 0
M  V30 31 C 3.681237 -0.213390 3.390398 0
M  V30 32 H 2.371163 -0.881705 7.481542 0
M  V30 33 H 2.814915 -2.589314 7.284240 0
M  V30 34 H 4.119869 -1.371885 7.357814 0
M  V30 35 H 5.511826 0.491391 5.252362 0
M  V30 36 H 4.146607 0.914054 6.415604 0
M  V30 37 H 3.072500 2.237801 4.786516 0
M  V30 38 H 4.802459 2.629118 4.419121 0
M  V30 39 H 4.118988 2.616123 1.585812 0
M  V30 40 H 2.150157 1.914673 -2.308386 0
M  V30 41 H 1.429959 0.091707 -0.081909 0
M  V30 42 H 1.634104 -0.499245 -1.744133 0
M  V30 43 H -0.395055 1.533814 -0.806631 0
M  V30 44 H -0.148099 1.165721 -2.524801 0
M  V30 45 H -2.703570 0.688856 -1.980882 0
M  V30 46 H -2.718031 -2.229942 -1.172340 0
M  V30 47 H -4.052060 -0.438444 0.326464 0
M  V30 48 H -5.235447 -0.551742 -0.996948 0
M  V30 49 H -4.172325 -2.738574 0.758800 0
M  V30 50 H -5.899878 -2.341124 0.352364 0
M  V30 51 H -3.832254 -4.053805 -1.101524 0
M  V30 52 H -5.651333 -4.132330 -1.085861 0
M  V30 53 H -6.149085 -4.309708 -3.376097 0
M  V30 54 H -6.055036 -3.231598 -5.602356 0
M  V30 55 H -4.633810 -1.189932 -5.989570 0
M  V30 56 H -3.308918 -0.266463 -4.063339 0
M  V30 57 H 3.435415 -1.435036 0.314094 0
M  V30 58 H 3.343421 -2.201468 2.610182 0
M  V30 END ATOM
M  V30 BEGIN BOND
M  V30 1 1 1 2
M  V30 2 2 2 3
M  V30 3 1 2 4
M  V30 4 1 4 5
M  V30 5 1 5 6
M  V30 6 1 6 7
M  V30 7 2 7 8
M  V30 8 1 8 9
M  V30 9 1 9 10
M  V30 10 2 10 11
M  V30 11 2 10 12
M  V30 12 1 10 13
M  V30 13 1 13 14
M  V30 14 1 14 15
M  V30 15 1 15 16
M  V30 16 2 16 17
M  V30 17 1 16 18
M  V30 18 1 18 19
M  V30 19 1 19 20
M  V30 20 1 20 21
M  V30 21 1 21 22
M  V30 22 1 22 23
M  V30 23 2 23 24
M  V30 24 1 24 25
M  V30 25 2 25 26
M  V30 26 1 26 27
M  V30 27 2 27 28
M  V30 28 2 9 29
M  V30 29 1 29 30
M  V30 30 2 30 31
M  V30 31 1 31 4
M  V30 32 1 31 7
M  V30 33 1 28 19
M  V30 34 1 28 23
M  V30 35 1 1 32
M  V30 36 1 1 33
M  V30 37 1 1 34
M  V30 38 1 5 35
M  V30 39 1 5 36
M  V30 40 1 6 37
M  V30 41 1 6 38
M  V30 42 1 8 39
M  V30 43 1 13 40
M  V30 44 1 14 41
M  V30 45 1 14 42
M  V30 46 1 15 43
M  V30 47 1 15 44
M  V30 48 1 18 45
M  V30 49 1 19 46
M  V30 50 1 20 47
M  V30 51 1 20 48
M  V30 52 1 21 49
M  V30 53 1 21 50
M  V30 54 1 22 51
M  V30 55 1 22 52
M  V30 56 1 24 53
M  V30 57 1 25 54
M  V30 58 1 26 55
M  V30 59 1 27 56
M  V30 60 1 29 57
M  V30 61 1 30 58
M  V30 END BOND
M  V30 END CTAB
M  END
>  <Dataset>  (312) 
ChEMBL_Kinases

>  <Ligand_Instance>  (312) 
nan

>  <PDB_ID>  (312) 
nan

>  <Standardized_SMILES>  (312) 
CC(=O)N1CCc2cc(S(=O)(=O)NCCC(=O)NC3CCCc4ccccc43)ccc21

>  <Name>  (312) 
nan

>  <Pocket>  (312) 
nan

>  <ATP_Site>  (312) 
nan

>  <Peripheral>  (312) 
nan

>  <Num_H_Atoms_ProtBoundConf>  (312) 
nan

>  <Num_Resolved_Atoms>  (312) 
nan

>  <Num_Not_Resolved_Atoms>  (312) 
nan

$$$$
CHEMBL1455082
     RDKit          3D

  0  0  0  0  0  0  0  0  0  0999 V3000
M  V30 BEGIN CTAB
M  V30 COUNTS 35 37 0 0 0
M  V30 BEGIN ATOM
M  V30 1 C -1.195666 -5.185197 2.840210 0
M  V30 2 C -1.199015 -3.824072 2.218519 0
M  V30 3 C -0.027904 -3.206268 1.847699 0
M  V30 4 C -0.094573 -1.947567 1.277563 0
M  V30 5 C 1.184571 -1.400533 0.931232 0
M  V30 6 O 2.294213 -1.948087 1.097302 0
M  V30 7 O 1.730917 -0.262657 0.370618 0
M  V30 8 C 3.133369 -0.144023 0.209769 0
M  V30 9 C 3.481359 1.144962 -0.399549 0
M  V30 10 O 4.760333 1.090742 -0.481469 0
M  V30 11 C 2.821050 2.307738 -0.868205 0
M  V30 12 C 1.571223 2.788550 -0.980531 0
M  V30 13 C 1.321789 4.013409 -1.511259 0
M  V30 14 C 2.434504 4.757293 -1.938945 0
M  V30 15 S 3.855599 3.616224 -1.543596 0
M  V30 16 C -1.343385 -1.390443 1.117349 0
M  V30 17 C -1.389576 -0.156043 0.556668 0
M  V30 18 C -2.552473 0.546630 0.323378 0
M  V30 19 C -3.743146 -0.083986 0.701548 0
M  V30 20 C -3.698285 -1.333039 1.269021 0
M  V30 21 C -2.516112 -2.008630 1.488472 0
M  V30 22 N -2.385806 -3.227245 2.035487 0
M  V30 23 H -2.105435 -5.307580 3.478264 0
M  V30 24 H -0.265175 -5.350194 3.413485 0
M  V30 25 H -1.259151 -5.988658 2.074018 0
M  V30 26 H 0.882605 -3.752809 2.028630 0
M  V30 27 H 3.455987 -1.002249 -0.420488 0
M  V30 28 H 3.616691 -0.267999 1.210604 0
M  V30 29 H 0.804931 2.125190 -0.617868 0
M  V30 30 H 0.337721 4.445714 -1.623899 0
M  V30 31 H 2.453206 5.721589 -2.374709 0
M  V30 32 H -0.493811 0.351786 0.256786 0
M  V30 33 H -2.660019 1.521067 -0.113849 0
M  V30 34 H -4.725192 0.352100 0.576442 0
M  V30 35 H -4.591181 -1.867170 1.580596 0
M  V30 END ATOM
M  V30 BEGIN BOND
M  V30 1 1 1 2
M  V30 2 2 2 3
M  V30 3 1 3 4
M  V30 4 1 4 5
M  V30 5 2 5 6
M  V30 6 1 5 7
M  V30 7 1 7 8
M  V30 8 1 8 9
M  V30 9 2 9 10
M  V30 10 1 9 11
M  V30 11 2 11 12
M  V30 12 1 12 13
M  V30 13 2 13 14
M  V30 14 1 14 15
M  V30 15 2 4 16
M  V30 16 1 16 17
M  V30 17 2 17 18
M  V30 18 1 18 19
M  V30 19 2 19 20
M  V30 20 1 20 21
M  V30 21 2 21 22
M  V30 22 1 22 2
M  V30 23 1 15 11
M  V30 24 1 21 16
M  V30 25 1 1 23
M  V30 26 1 1 24
M  V30 27 1 1 25
M  V30 28 1 3 26
M  V30 29 1 8 27
M  V30 30 1 8 28
M  V30 31 1 12 29
M  V30 32 1 13 30
M  V30 33 1 14 31
M  V30 34 1 17 32
M  V30 35 1 18 33
M  V30 36 1 19 34
M  V30 37 1 20 35
M  V30 END BOND
M  V30 END CTAB
M  END
>  <Dataset>  (313) 
ChEMBL_Kinases

>  <Ligand_Instance>  (313) 
nan

>  <PDB_ID>  (313) 
nan

>  <Standardized_SMILES>  (313) 
Cc1cc(C(=O)OCC(=O)c2cccs2)c2ccccc2n1

>  <Name>  (313) 
nan

>  <Pocket>  (313) 
nan

>  <ATP_Site>  (313) 
nan

>  <Peripheral>  (313) 
nan

>  <Num_H_Atoms_ProtBoundConf>  (313) 
nan

>  <Num_Resolved_Atoms>  (313) 
nan

>  <Num_Not_Resolved_Atoms>  (313) 
nan

$$$$
CHEMBL1455044
     RDKit          3D

  0  0  0  0  0  0  0  0  0  0999 V3000
M  V30 BEGIN CTAB
M  V30 COUNTS 58 61 0 0 0
M  V30 BEGIN ATOM
M  V30 1 N -1.484753 -3.485820 -3.301725 0
M  V30 2 C -0.571994 -2.940539 -2.769880 0
M  V30 3 C 0.547355 -2.269448 -2.131188 0
M  V30 4 C 0.534622 -1.581733 -1.033720 0
M  V30 5 C -0.761371 -1.485277 -0.390902 0
M  V30 6 C -0.784560 -0.758982 0.745220 0
M  V30 7 N 0.300398 -0.084959 1.391184 0
M  V30 8 C 1.159433 -0.562596 2.443919 0
M  V30 9 C 1.698975 0.674597 3.160175 0
M  V30 10 O 2.446095 1.493332 2.337908 0
M  V30 11 C 2.052066 1.473937 1.022596 0
M  V30 12 C 0.561964 1.269717 0.907410 0
M  V30 13 C -2.152575 -0.707149 1.202289 0
M  V30 14 C -2.610836 0.076276 2.143199 0
M  V30 15 C -3.944835 0.223797 2.684270 0
M  V30 16 C -5.182059 0.366608 2.069942 0
M  V30 17 C -6.384814 0.470248 2.699331 0
M  V30 18 C -6.319411 0.425526 4.067084 0
M  V30 19 C -5.181016 0.290525 4.826405 0
M  V30 20 N -5.188799 0.256305 6.237805 0 CHG=1 VAL=4
M  V30 21 O -6.279861 0.344615 6.828629 0
M  V30 22 O -4.016938 0.128090 6.920529 0 CHG=-1 VAL=1
M  V30 23 C -4.006404 0.192136 4.072868 0
M  V30 24 C -2.982714 -1.662680 0.492335 0
M  V30 25 C -2.072997 -2.046872 -0.686403 0
M  V30 26 C 1.655912 -2.530897 -3.009937 0
M  V30 27 O 2.352813 -2.935415 -3.942656 0
M  V30 28 N 2.870915 -1.890577 -2.508477 0
M  V30 29 C 4.181697 -1.872873 -3.039403 0
M  V30 30 C 4.527264 -0.851531 -3.900293 0
M  V30 31 C 5.776836 -0.680740 -4.516128 0
M  V30 32 C 6.673651 -1.658297 -4.177877 0
M  V30 33 C 6.437720 -2.720764 -3.331746 0
M  V30 34 C 5.180038 -2.810084 -2.770635 0
M  V30 35 F 4.795632 -3.798218 -1.919797 0
M  V30 36 H 1.468854 -1.161006 -0.716112 0
M  V30 37 H 0.597580 -1.147669 3.173683 0
M  V30 38 H 1.990182 -1.195044 2.068386 0
M  V30 39 H 2.387019 0.313981 3.977948 0
M  V30 40 H 0.867863 1.175528 3.659603 0
M  V30 41 H 2.531354 0.583887 0.547972 0
M  V30 42 H 2.338019 2.373652 0.453861 0
M  V30 43 H 0.240983 1.387345 -0.137128 0
M  V30 44 H 0.054498 1.995927 1.564961 0
M  V30 45 H -1.888808 0.759171 2.627593 0
M  V30 46 H -5.130700 0.410693 0.993031 0
M  V30 47 H -7.283699 0.577306 2.121463 0
M  V30 48 H -7.247299 0.500842 4.644702 0
M  V30 49 H -3.112839 0.085949 4.694845 0
M  V30 50 H -3.074528 -2.568385 1.165533 0
M  V30 51 H -3.963722 -1.369662 0.157125 0
M  V30 52 H -2.051556 -3.166931 -0.699616 0
M  V30 53 H -2.557000 -1.606781 -1.574407 0
M  V30 54 H 3.153758 -1.281333 -1.659139 0
M  V30 55 H 3.771013 -0.104667 -4.131146 0
M  V30 56 H 5.978188 0.144399 -5.180149 0
M  V30 57 H 7.670346 -1.623754 -4.595193 0
M  V30 58 H 7.177654 -3.471556 -3.092880 0
M  V30 END ATOM
M  V30 BEGIN BOND
M  V30 1 3 1 2
M  V30 2 1 2 3
M  V30 3 2 3 4
M  V30 4 1 4 5
M  V30 5 2 5 6
M  V30 6 1 6 7
M  V30 7 1 7 8
M  V30 8 1 8 9
M  V30 9 1 9 10
M  V30 10 1 10 11
M  V30 11 1 11 12
M  V30 12 1 6 13
M  V30 13 2 13 14
M  V30 14 1 14 15
M  V30 15 2 15 16
M  V30 16 1 16 17
M  V30 17 2 17 18
M  V30 18 1 18 19
M  V30 19 1 19 20
M  V30 20 2 20 21
M  V30 21 1 20 22
M  V30 22 2 19 23
M  V30 23 1 13 24
M  V30 24 1 24 25
M  V30 25 1 3 26
M  V30 26 2 26 27
M  V30 27 1 26 28
M  V30 28 1 28 29
M  V30 29 2 29 30
M  V30 30 1 30 31
M  V30 31 2 31 32
M  V30 32 1 32 33
M  V30 33 2 33 34
M  V30 34 1 34 35
M  V30 35 1 25 5
M  V30 36 1 34 29
M  V30 37 1 12 7
M  V30 38 1 23 15
M  V30 39 1 4 36
M  V30 40 1 8 37
M  V30 41 1 8 38
M  V30 42 1 9 39
M  V30 43 1 9 40
M  V30 44 1 11 41
M  V30 45 1 11 42
M  V30 46 1 12 43
M  V30 47 1 12 44
M  V30 48 1 14 45
M  V30 49 1 16 46
M  V30 50 1 17 47
M  V30 51 1 18 48
M  V30 52 1 23 49
M  V30 53 1 24 50
M  V30 54 1 24 51
M  V30 55 1 25 52
M  V30 56 1 25 53
M  V30 57 1 28 54
M  V30 58 1 30 55
M  V30 59 1 31 56
M  V30 60 1 32 57
M  V30 61 1 33 58
M  V30 END BOND
M  V30 END CTAB
M  END
>  <Dataset>  (314) 
ChEMBL_Kinases

>  <Ligand_Instance>  (314) 
nan

>  <PDB_ID>  (314) 
nan

>  <Standardized_SMILES>  (314) 
N#C/C(=C\C1=C(N2CCOCC2)/C(=C/c2cccc([N+](=O)[O-])c2)CC1)C(=O)Nc1ccccc1F

>  <Name>  (314) 
nan

>  <Pocket>  (314) 
nan

>  <ATP_Site>  (314) 
nan

>  <Peripheral>  (314) 
nan

>  <Num_H_Atoms_ProtBoundConf>  (314) 
nan

>  <Num_Resolved_Atoms>  (314) 
nan

>  <Num_Not_Resolved_Atoms>  (314) 
nan

$$$$
CHEMBL1454969
     RDKit          3D

  0  0  0  0  0  0  0  0  0  0999 V3000
M  V30 BEGIN CTAB
M  V30 COUNTS 44 46 0 0 0
M  V30 BEGIN ATOM
M  V30 1 C -1.605534 -6.072632 -0.033936 0
M  V30 2 C -1.636727 -4.629603 -0.410599 0
M  V30 3 C -0.711072 -4.203761 -1.327003 0
M  V30 4 C -0.720494 -2.894003 -1.684812 0
M  V30 5 C -1.591900 -1.973367 -1.191099 0
M  V30 6 S -1.775930 -0.248114 -1.501401 0
M  V30 7 C -0.577010 0.442861 -2.630997 0
M  V30 8 C 0.831939 0.484669 -2.110223 0
M  V30 9 N 0.945693 1.287146 -0.905032 0
M  V30 10 C 0.622173 2.668819 -0.823942 0
M  V30 11 O 0.203989 3.303440 -1.823506 0
M  V30 12 C 0.750142 3.462931 0.427938 0
M  V30 13 N 1.231935 2.658613 1.526485 0
M  V30 14 C 2.552059 2.380161 1.954302 0
M  V30 15 O 3.518955 2.904029 1.298441 0
M  V30 16 C 2.655853 1.531317 3.089021 0
M  V30 17 C 3.794825 1.079559 3.737017 0
M  V30 18 C 3.652959 0.251443 4.831335 0
M  V30 19 C 2.434794 -0.163159 5.331116 0
M  V30 20 C 1.295994 0.284508 4.688655 0
M  V30 21 C 1.456950 1.113114 3.594474 0
M  V30 22 S 0.173979 1.803968 2.624496 0
M  V30 23 O -0.674097 0.805677 1.946233 0
M  V30 24 O -0.650251 2.788626 3.399715 0
M  V30 25 C -2.532162 -2.421943 -0.255923 0
M  V30 26 C -2.557675 -3.761621 0.140247 0
M  V30 27 H -0.627461 -6.521150 -0.267748 0
M  V30 28 H -2.369489 -6.679916 -0.529938 0
M  V30 29 H -1.727944 -6.172589 1.072077 0
M  V30 30 H 0.034051 -4.818500 -1.797255 0
M  V30 31 H -0.039330 -2.492243 -2.391505 0
M  V30 32 H -0.619350 -0.016601 -3.642728 0
M  V30 33 H -0.906539 1.508065 -2.817739 0
M  V30 34 H 1.150239 -0.534163 -1.826200 0
M  V30 35 H 1.527299 0.797548 -2.915431 0
M  V30 36 H 1.285702 0.896907 0.024283 0
M  V30 37 H 1.431794 4.313992 0.207063 0
M  V30 38 H -0.240378 3.854474 0.687122 0
M  V30 39 H 4.804788 1.344566 3.427268 0
M  V30 40 H 4.496674 -0.153445 5.404520 0
M  V30 41 H 2.326401 -0.812871 6.189735 0
M  V30 42 H 0.332531 -0.025211 5.060073 0
M  V30 43 H -3.312712 -1.856595 0.258523 0
M  V30 44 H -3.237775 -4.185764 0.844465 0
M  V30 END ATOM
M  V30 BEGIN BOND
M  V30 1 1 1 2
M  V30 2 2 2 3
M  V30 3 1 3 4
M  V30 4 2 4 5
M  V30 5 1 5 6
M  V30 6 1 6 7
M  V30 7 1 7 8
M  V30 8 1 8 9
M  V30 9 1 9 10
M  V30 10 2 10 11
M  V30 11 1 10 12
M  V30 12 1 12 13
M  V30 13 1 13 14
M  V30 14 2 14 15
M  V30 15 1 14 16
M  V30 16 2 16 17
M  V30 17 1 17 18
M  V30 18 2 18 19
M  V30 19 1 19 20
M  V30 20 2 20 21
M  V30 21 1 21 22
M  V30 22 2 22 23
M  V30 23 2 22 24
M  V30 24 1 5 25
M  V30 25 2 25 26
M  V30 26 1 26 2
M  V30 27 1 22 13
M  V30 28 1 21 16
M  V30 29 1 1 27
M  V30 30 1 1 28
M  V30 31 1 1 29
M  V30 32 1 3 30
M  V30 33 1 4 31
M  V30 34 1 7 32
M  V30 35 1 7 33
M  V30 36 1 8 34
M  V30 37 1 8 35
M  V30 38 1 9 36
M  V30 39 1 12 37
M  V30 40 1 12 38
M  V30 41 1 17 39
M  V30 42 1 18 40
M  V30 43 1 19 41
M  V30 44 1 20 42
M  V30 45 1 25 43
M  V30 46 1 26 44
M  V30 END BOND
M  V30 END CTAB
M  END
>  <Dataset>  (315) 
ChEMBL_Kinases

>  <Ligand_Instance>  (315) 
nan

>  <PDB_ID>  (315) 
nan

>  <Standardized_SMILES>  (315) 
Cc1ccc(SCCNC(=O)CN2C(=O)c3ccccc3S2(=O)=O)cc1

>  <Name>  (315) 
nan

>  <Pocket>  (315) 
nan

>  <ATP_Site>  (315) 
nan

>  <Peripheral>  (315) 
nan

>  <Num_H_Atoms_ProtBoundConf>  (315) 
nan

>  <Num_Resolved_Atoms>  (315) 
nan

>  <Num_Not_Resolved_Atoms>  (315) 
nan

$$$$
CHEMBL1454946
     RDKit          3D

  0  0  0  0  0  0  0  0  0  0999 V3000
M  V30 BEGIN CTAB
M  V30 COUNTS 35 37 0 0 0
M  V30 BEGIN ATOM
M  V30 1 C 1.134705 -6.363532 2.640028 0
M  V30 2 O 2.164626 -5.765003 1.829388 0
M  V30 3 C 1.981881 -4.521933 1.258115 0
M  V30 4 O 0.836007 -4.028893 1.544234 0
M  V30 5 N 2.804715 -3.724371 0.442642 0
M  V30 6 C 2.364294 -2.450777 -0.003025 0
M  V30 7 N 1.201624 -1.888300 0.286953 0
M  V30 8 C 1.091462 -0.660099 -0.290832 0
M  V30 9 C 0.061167 0.262091 -0.246398 0
M  V30 10 C 0.186861 1.469597 -0.923841 0
M  V30 11 C -0.877305 2.439281 -0.843168 0
M  V30 12 O -0.989634 3.231732 -1.793245 0
M  V30 13 C -1.807445 2.540186 0.264054 0
M  V30 14 C -1.448169 2.103369 1.517594 0
M  V30 15 C -2.249610 2.124460 2.633107 0
M  V30 16 C -3.531389 2.627225 2.497736 0
M  V30 17 F -4.394201 2.686490 3.545405 0
M  V30 18 C -3.972024 3.093187 1.252571 0
M  V30 19 C -3.091168 3.032739 0.176224 0
M  V30 20 C 1.361954 1.661933 -1.610008 0
M  V30 21 C 2.388570 0.742807 -1.654801 0
M  V30 22 C 2.275286 -0.471177 -0.978863 0
M  V30 23 N 3.014152 -1.570991 -0.780818 0
M  V30 24 H 0.164363 -6.024151 2.176117 0
M  V30 25 H 1.266271 -7.440712 2.627882 0
M  V30 26 H 1.175009 -5.887349 3.635373 0
M  V30 27 H 3.714121 -4.170334 0.238488 0
M  V30 28 H -0.824113 -0.044921 0.330999 0
M  V30 29 H -0.471195 1.705559 1.777362 0
M  V30 30 H -2.001561 1.793111 3.618400 0
M  V30 31 H -4.968077 3.477736 1.172719 0
M  V30 32 H -3.429051 3.393490 -0.797386 0
M  V30 33 H 1.490830 2.594119 -2.149138 0
M  V30 34 H 3.319281 0.875796 -2.188545 0
M  V30 35 H 3.951927 -1.713817 -1.176031 0
M  V30 END ATOM
M  V30 BEGIN BOND
M  V30 1 1 1 2
M  V30 2 1 2 3
M  V30 3 2 3 4
M  V30 4 1 3 5
M  V30 5 1 5 6
M  V30 6 2 6 7
M  V30 7 1 7 8
M  V30 8 2 8 9
M  V30 9 1 9 10
M  V30 10 1 10 11
M  V30 11 2 11 12
M  V30 12 1 11 13
M  V30 13 2 13 14
M  V30 14 1 14 15
M  V30 15 2 15 16
M  V30 16 1 16 17
M  V30 17 1 16 18
M  V30 18 2 18 19
M  V30 19 2 10 20
M  V30 20 1 20 21
M  V30 21 2 21 22
M  V30 22 1 22 23
M  V30 23 1 23 6
M  V30 24 1 22 8
M  V30 25 1 19 13
M  V30 26 1 1 24
M  V30 27 1 1 25
M  V30 28 1 1 26
M  V30 29 1 5 27
M  V30 30 1 9 28
M  V30 31 1 14 29
M  V30 32 1 15 30
M  V30 33 1 18 31
M  V30 34 1 19 32
M  V30 35 1 20 33
M  V30 36 1 21 34
M  V30 37 1 23 35
M  V30 END BOND
M  V30 END CTAB
M  END
>  <Dataset>  (316) 
ChEMBL_Kinases

>  <Ligand_Instance>  (316) 
nan

>  <PDB_ID>  (316) 
nan

>  <Standardized_SMILES>  (316) 
COC(=O)Nc1nc2cc(C(=O)c3ccc(F)cc3)ccc2[nH]1

>  <Name>  (316) 
FLUBENDAZOLE

>  <Pocket>  (316) 
nan

>  <ATP_Site>  (316) 
nan

>  <Peripheral>  (316) 
nan

>  <Num_H_Atoms_ProtBoundConf>  (316) 
nan

>  <Num_Resolved_Atoms>  (316) 
nan

>  <Num_Not_Resolved_Atoms>  (316) 
nan

$$$$
CHEMBL1454636
     RDKit          3D

  0  0  0  0  0  0  0  0  0  0999 V3000
M  V30 BEGIN CTAB
M  V30 COUNTS 44 47 0 0 0
M  V30 BEGIN ATOM
M  V30 1 C -3.203594 -4.253553 -0.496010 0
M  V30 2 O -2.049054 -3.577296 -0.063881 0
M  V30 3 C -1.406258 -2.715764 -0.941428 0
M  V30 4 C -1.820789 -2.463166 -2.238196 0
M  V30 5 C -1.142683 -1.593090 -3.074419 0
M  V30 6 C -0.013639 -0.962039 -2.581804 0
M  V30 7 C 0.465832 -1.167491 -1.281201 0
M  V30 8 C 1.666259 -0.418280 -0.923153 0
M  V30 9 N 1.415412 0.739515 -0.092106 0
M  V30 10 C 1.143698 1.953355 -0.641173 0
M  V30 11 N 1.053100 2.281186 -2.021667 0
M  V30 12 C 0.944615 2.928531 0.312746 0
M  V30 13 C 0.640141 4.319684 0.132159 0
M  V30 14 N 0.401409 5.446142 -0.028851 0
M  V30 15 C 1.101733 2.284588 1.525737 0
M  V30 16 N 1.034374 2.684214 2.815930 0
M  V30 17 C 1.245497 1.786359 3.805186 0
M  V30 18 C 1.178707 2.182078 5.125278 0
M  V30 19 C 1.390099 1.281935 6.159967 0
M  V30 20 C 1.675878 -0.047652 5.877000 0
M  V30 21 C 1.745397 -0.456575 4.538725 0
M  V30 22 C 1.528824 0.466576 3.508174 0
M  V30 23 N 1.592163 0.084764 2.218855 0
M  V30 24 C 1.384013 0.968294 1.228885 0
M  V30 25 C -0.275394 -2.045427 -0.537233 0
M  V30 26 O 0.171511 -2.274128 0.755457 0
M  V30 27 C 1.093679 -3.349421 0.921495 0
M  V30 28 H -2.931999 -5.100262 -1.167170 0
M  V30 29 H -3.780770 -4.680801 0.374044 0
M  V30 30 H -3.940386 -3.605979 -1.020675 0
M  V30 31 H -2.710192 -2.973039 -2.597965 0
M  V30 32 H -1.464323 -1.400914 -4.071866 0
M  V30 33 H 0.500869 -0.278440 -3.270227 0
M  V30 34 H 2.365430 -1.138522 -0.397354 0
M  V30 35 H 2.256177 -0.084073 -1.800720 0
M  V30 36 H 1.591321 2.797839 -2.752619 0
M  V30 37 H 0.466171 2.174133 -2.878075 0
M  V30 38 H 0.958895 3.209775 5.421925 0
M  V30 39 H 1.329290 1.628967 7.198817 0
M  V30 40 H 1.845124 -0.772880 6.660732 0
M  V30 41 H 1.964901 -1.480676 4.245222 0
M  V30 42 H 1.604517 -3.300283 1.896996 0
M  V30 43 H 1.841374 -3.414623 0.125127 0
M  V30 44 H 0.540556 -4.334384 0.906922 0
M  V30 END ATOM
M  V30 BEGIN BOND
M  V30 1 1 1 2
M  V30 2 1 2 3
M  V30 3 2 3 4
M  V30 4 1 4 5
M  V30 5 2 5 6
M  V30 6 1 6 7
M  V30 7 1 7 8
M  V30 8 1 8 9
M  V30 9 1 9 10
M  V30 10 1 10 11
M  V30 11 2 10 12
M  V30 12 1 12 13
M  V30 13 3 13 14
M  V30 14 1 12 15
M  V30 15 2 15 16
M  V30 16 1 16 17
M  V30 17 2 17 18
M  V30 18 1 18 19
M  V30 19 2 19 20
M  V30 20 1 20 21
M  V30 21 2 21 22
M  V30 22 1 22 23
M  V30 23 2 23 24
M  V30 24 2 7 25
M  V30 25 1 25 26
M  V30 26 1 26 27
M  V30 27 1 25 3
M  V30 28 1 24 9
M  V30 29 1 24 15
M  V30 30 1 22 17
M  V30 31 1 1 28
M  V30 32 1 1 29
M  V30 33 1 1 30
M  V30 34 1 4 31
M  V30 35 1 5 32
M  V30 36 1 6 33
M  V30 37 1 8 34
M  V30 38 1 8 35
M  V30 39 1 11 36
M  V30 40 1 11 37
M  V30 41 1 18 38
M  V30 42 1 19 39
M  V30 43 1 20 40
M  V30 44 1 21 41
M  V30 45 1 27 42
M  V30 46 1 27 43
M  V30 47 1 27 44
M  V30 END BOND
M  V30 END CTAB
M  END
>  <Dataset>  (317) 
ChEMBL_Kinases

>  <Ligand_Instance>  (317) 
nan

>  <PDB_ID>  (317) 
nan

>  <Standardized_SMILES>  (317) 
COc1cccc(Cn2c(N)c(C#N)c3nc4ccccc4nc32)c1OC

>  <Name>  (317) 
nan

>  <Pocket>  (317) 
nan

>  <ATP_Site>  (317) 
nan

>  <Peripheral>  (317) 
nan

>  <Num_H_Atoms_ProtBoundConf>  (317) 
nan

>  <Num_Resolved_Atoms>  (317) 
nan

>  <Num_Not_Resolved_Atoms>  (317) 
nan

$$$$
CHEMBL1454635
     RDKit          3D

  0  0  0  0  0  0  0  0  0  0999 V3000
M  V30 BEGIN CTAB
M  V30 COUNTS 24 25 0 0 0
M  V30 BEGIN ATOM
M  V30 1 N 2.708339 -0.878967 3.564055 0
M  V30 2 C 1.735819 -0.709864 2.566025 0
M  V30 3 O 0.997419 0.302585 2.553543 0
M  V30 4 C 1.524972 -1.681641 1.499494 0
M  V30 5 C 2.230326 -2.823785 1.363932 0
M  V30 6 C 1.984601 -3.708810 0.329631 0
M  V30 7 S 0.633082 -2.877297 -0.554542 0
M  V30 8 C 0.533197 -1.492064 0.496086 0
M  V30 9 N -0.409492 -0.375189 0.331974 0
M  V30 10 C 0.190817 0.608803 -0.477858 0
M  V30 11 O 1.356981 0.534946 -0.980213 0
M  V30 12 C -0.544367 1.870259 -0.816425 0
M  V30 13 C -1.984380 2.012006 -0.638133 0
M  V30 14 C -1.144264 2.555233 0.440809 0
M  V30 15 H 2.946550 -0.092471 4.198602 0
M  V30 16 H 3.220643 -1.757381 3.717885 0
M  V30 17 H 3.022607 -3.122825 2.041077 0
M  V30 18 H 2.404284 -4.617951 0.055436 0
M  V30 19 H -1.350652 -0.271520 0.713637 0
M  V30 20 H 0.028762 2.558791 -1.454297 0
M  V30 21 H -2.654156 1.152950 -0.475923 0
M  V30 22 H -2.464979 2.792212 -1.283432 0
M  V30 23 H -0.963937 3.626766 0.579362 0
M  V30 24 H -1.150033 1.986958 1.383287 0
M  V30 END ATOM
M  V30 BEGIN BOND
M  V30 1 1 1 2
M  V30 2 2 2 3
M  V30 3 1 2 4
M  V30 4 1 4 5
M  V30 5 2 5 6
M  V30 6 1 6 7
M  V30 7 1 7 8
M  V30 8 1 8 9
M  V30 9 1 9 10
M  V30 10 2 10 11
M  V30 11 1 10 12
M  V30 12 1 12 13
M  V30 13 1 13 14
M  V30 14 2 8 4
M  V30 15 1 14 12
M  V30 16 1 1 15
M  V30 17 1 1 16
M  V30 18 1 5 17
M  V30 19 1 6 18
M  V30 20 1 9 19
M  V30 21 1 12 20
M  V30 22 1 13 21
M  V30 23 1 13 22
M  V30 24 1 14 23
M  V30 25 1 14 24
M  V30 END BOND
M  V30 END CTAB
M  END
>  <Dataset>  (318) 
ChEMBL_Kinases

>  <Ligand_Instance>  (318) 
nan

>  <PDB_ID>  (318) 
nan

>  <Standardized_SMILES>  (318) 
NC(=O)c1ccsc1NC(=O)C1CC1

>  <Name>  (318) 
nan

>  <Pocket>  (318) 
nan

>  <ATP_Site>  (318) 
nan

>  <Peripheral>  (318) 
nan

>  <Num_H_Atoms_ProtBoundConf>  (318) 
nan

>  <Num_Resolved_Atoms>  (318) 
nan

>  <Num_Not_Resolved_Atoms>  (318) 
nan

$$$$
CHEMBL1454264
     RDKit          3D

  0  0  0  0  0  0  0  0  0  0999 V3000
M  V30 BEGIN CTAB
M  V30 COUNTS 31 33 0 0 0
M  V30 BEGIN ATOM
M  V30 1 O -0.953739 -5.818993 0.731790 0
M  V30 2 C -0.594809 -4.618936 0.837162 0
M  V30 3 N -1.361098 -3.760649 1.698676 0
M  V30 4 C -0.726636 -2.480868 1.617636 0
M  V30 5 O -1.081785 -1.430348 2.224268 0
M  V30 6 C 0.415685 -2.552838 0.716924 0
M  V30 7 C 1.355918 -1.635973 0.285618 0
M  V30 8 N 1.309514 -0.292188 0.748132 0
M  V30 9 C 0.539499 0.592508 -0.030292 0
M  V30 10 O -0.049429 0.142127 -1.070547 0
M  V30 11 C 0.288549 2.028246 0.168965 0
M  V30 12 C -1.199276 2.220557 0.294727 0
M  V30 13 C -1.375144 2.337211 1.779150 0
M  V30 14 C 0.012355 2.599679 2.324245 0
M  V30 15 O 0.898594 2.569151 1.275968 0
M  V30 16 C 2.354591 -2.021609 -0.604346 0
M  V30 17 C 2.377386 -3.330266 -1.037564 0
M  V30 18 C 1.471895 -4.295685 -0.648379 0
M  V30 19 C 0.497585 -3.857040 0.239698 0
M  V30 20 H -2.195244 -3.944077 2.281423 0
M  V30 21 H 1.756037 0.155620 1.578816 0
M  V30 22 H 0.612836 2.645778 -0.700336 0
M  V30 23 H -1.777605 1.331938 -0.033942 0
M  V30 24 H -1.572699 3.103232 -0.260875 0
M  V30 25 H -2.080875 3.147322 1.986648 0
M  V30 26 H -1.766594 1.418654 2.250321 0
M  V30 27 H 0.282094 1.851900 3.103714 0
M  V30 28 H -0.036724 3.599580 2.823710 0
M  V30 29 H 3.084873 -1.288713 -0.932740 0
M  V30 30 H 3.169662 -3.620235 -1.738524 0
M  V30 31 H 1.499223 -5.319397 -0.994578 0
M  V30 END ATOM
M  V30 BEGIN BOND
M  V30 1 2 1 2
M  V30 2 1 2 3
M  V30 3 1 3 4
M  V30 4 2 4 5
M  V30 5 1 4 6
M  V30 6 2 6 7
M  V30 7 1 7 8
M  V30 8 1 8 9
M  V30 9 2 9 10
M  V30 10 1 9 11
M  V30 11 1 11 12
M  V30 12 1 12 13
M  V30 13 1 13 14
M  V30 14 1 14 15
M  V30 15 1 7 16
M  V30 16 2 16 17
M  V30 17 1 17 18
M  V30 18 2 18 19
M  V30 19 1 19 2
M  V30 20 1 19 6
M  V30 21 1 15 11
M  V30 22 1 3 20
M  V30 23 1 8 21
M  V30 24 1 11 22
M  V30 25 1 12 23
M  V30 26 1 12 24
M  V30 27 1 13 25
M  V30 28 1 13 26
M  V30 29 1 14 27
M  V30 30 1 14 28
M  V30 31 1 16 29
M  V30 32 1 17 30
M  V30 33 1 18 31
M  V30 END BOND
M  V30 END CTAB
M  END
>  <Dataset>  (319) 
ChEMBL_Kinases

>  <Ligand_Instance>  (319) 
nan

>  <PDB_ID>  (319) 
nan

>  <Standardized_SMILES>  (319) 
O=C1NC(=O)c2c(NC(=O)C3CCCO3)cccc21

>  <Name>  (319) 
nan

>  <Pocket>  (319) 
nan

>  <ATP_Site>  (319) 
nan

>  <Peripheral>  (319) 
nan

>  <Num_H_Atoms_ProtBoundConf>  (319) 
nan

>  <Num_Resolved_Atoms>  (319) 
nan

>  <Num_Not_Resolved_Atoms>  (319) 
nan

$$$$
CHEMBL1454225
     RDKit          3D

  0  0  0  0  0  0  0  0  0  0999 V3000
M  V30 BEGIN CTAB
M  V30 COUNTS 40 42 0 0 0
M  V30 BEGIN ATOM
M  V30 1 C -0.180251 -4.343467 -2.776663 0
M  V30 2 N 0.768486 -4.784167 -1.767447 0
M  V30 3 C 1.024114 -6.045244 -1.424950 0
M  V30 4 C 1.981543 -6.059162 -0.433102 0
M  V30 5 C 2.271965 -4.726902 -0.214808 0
M  V30 6 C 1.509830 -3.908247 -1.054234 0
M  V30 7 C 1.539839 -2.443547 -1.113696 0
M  V30 8 O 2.336702 -1.830217 -0.326720 0
M  V30 9 O 0.677951 -1.853956 -2.042359 0
M  V30 10 C 0.652130 -0.444501 -2.147848 0
M  V30 11 C 0.198232 0.196476 -0.892825 0
M  V30 12 O 0.229374 1.455698 -1.129228 0
M  V30 13 N -0.226169 -0.215467 0.394186 0
M  V30 14 C -0.576810 0.810044 1.315964 0
M  V30 15 C -1.876061 1.276971 1.387142 0
M  V30 16 C -2.115449 2.271343 2.311805 0
M  V30 17 C -1.147730 2.803387 3.141717 0
M  V30 18 C 0.127597 2.292390 3.018997 0
M  V30 19 C 0.436383 1.309392 2.126972 0
M  V30 20 C 1.008421 2.992989 3.991509 0
M  V30 21 C 0.258949 4.218161 4.417752 0
M  V30 22 C -1.170503 3.849001 4.184113 0
M  V30 23 H 0.341812 -3.836465 -3.597743 0
M  V30 24 H -0.892750 -3.616616 -2.322377 0
M  V30 25 H -0.775936 -5.229894 -3.133560 0
M  V30 26 H 0.535164 -6.896132 -1.878480 0
M  V30 27 H 2.406302 -6.919174 0.059689 0
M  V30 28 H 2.983448 -4.341861 0.497823 0
M  V30 29 H 1.704989 -0.122448 -2.331359 0
M  V30 30 H 0.029505 -0.157987 -3.017870 0
M  V30 31 H -0.200294 -1.277436 0.408017 0
M  V30 32 H -2.659030 0.900713 0.770081 0
M  V30 33 H -3.121869 2.699878 2.434024 0
M  V30 34 H 1.428601 0.912915 2.032547 0
M  V30 35 H 2.010979 3.221869 3.588539 0
M  V30 36 H 1.088307 2.293725 4.868579 0
M  V30 37 H 0.416186 4.430254 5.511491 0
M  V30 38 H 0.611838 5.089205 3.830397 0
M  V30 39 H -1.631188 3.448837 5.123663 0
M  V30 40 H -1.801129 4.731195 3.896093 0
M  V30 END ATOM
M  V30 BEGIN BOND
M  V30 1 1 1 2
M  V30 2 1 2 3
M  V30 3 2 3 4
M  V30 4 1 4 5
M  V30 5 2 5 6
M  V30 6 1 6 7
M  V30 7 2 7 8
M  V30 8 1 7 9
M  V30 9 1 9 10
M  V30 10 1 10 11
M  V30 11 2 11 12
M  V30 12 1 11 13
M  V30 13 1 13 14
M  V30 14 2 14 15
M  V30 15 1 15 16
M  V30 16 2 16 17
M  V30 17 1 17 18
M  V30 18 2 18 19
M  V30 19 1 18 20
M  V30 20 1 20 21
M  V30 21 1 21 22
M  V30 22 1 6 2
M  V30 23 1 19 14
M  V30 24 1 22 17
M  V30 25 1 1 23
M  V30 26 1 1 24
M  V30 27 1 1 25
M  V30 28 1 3 26
M  V30 29 1 4 27
M  V30 30 1 5 28
M  V30 31 1 10 29
M  V30 32 1 10 30
M  V30 33 1 13 31
M  V30 34 1 15 32
M  V30 35 1 16 33
M  V30 36 1 19 34
M  V30 37 1 20 35
M  V30 38 1 20 36
M  V30 39 1 21 37
M  V30 40 1 21 38
M  V30 41 1 22 39
M  V30 42 1 22 40
M  V30 END BOND
M  V30 END CTAB
M  END
>  <Dataset>  (320) 
ChEMBL_Kinases

>  <Ligand_Instance>  (320) 
nan

>  <PDB_ID>  (320) 
nan

>  <Standardized_SMILES>  (320) 
Cn1cccc1C(=O)OCC(=O)Nc1ccc2c(c1)CCC2

>  <Name>  (320) 
nan

>  <Pocket>  (320) 
nan

>  <ATP_Site>  (320) 
nan

>  <Peripheral>  (320) 
nan

>  <Num_H_Atoms_ProtBoundConf>  (320) 
nan

>  <Num_Resolved_Atoms>  (320) 
nan

>  <Num_Not_Resolved_Atoms>  (320) 
nan

$$$$
CHEMBL1454183
     RDKit          3D

  0  0  0  0  0  0  0  0  0  0999 V3000
M  V30 BEGIN CTAB
M  V30 COUNTS 37 38 0 0 0
M  V30 BEGIN ATOM
M  V30 1 C 0.368657 2.696077 5.638548 0
M  V30 2 C 1.327615 2.283946 4.816267 0
M  V30 3 S 1.214411 2.505925 3.078547 0
M  V30 4 O 2.592974 2.856928 2.559082 0
M  V30 5 O 0.229092 3.561992 2.695624 0
M  V30 6 C 0.807700 0.942023 2.372947 0
M  V30 7 C -0.534755 0.702039 2.257965 0
M  V30 8 C -0.990685 -0.492720 1.718160 0
M  V30 9 C -0.065694 -1.432509 1.300282 0
M  V30 10 O -0.536997 -2.638248 0.755459 0
M  V30 11 C -0.773402 -2.768238 -0.612628 0
M  V30 12 C 0.121058 -3.185028 -1.580875 0
M  V30 13 C -0.306340 -3.248152 -2.891870 0
M  V30 14 C -1.594017 -2.908020 -3.255431 0
M  V30 15 S -2.003387 -3.035632 -4.965138 0
M  V30 16 O -3.439974 -3.367223 -5.133790 0
M  V30 17 O -1.208116 -4.157969 -5.603803 0
M  V30 18 C -1.676938 -1.534389 -5.806818 0
M  V30 19 C -2.628114 -0.613836 -5.720853 0
M  V30 20 C -2.495480 -2.490184 -2.294597 0
M  V30 21 C -2.075826 -2.421980 -0.965269 0
M  V30 22 C 1.294149 -1.181199 1.420449 0
M  V30 23 C 1.734655 0.009629 1.958403 0
M  V30 24 H 0.073172 2.748417 6.682144 0
M  V30 25 H -0.498369 3.180153 5.202239 0
M  V30 26 H 2.224945 1.790999 5.182680 0
M  V30 27 H -1.312620 1.398834 2.567314 0
M  V30 28 H -2.051796 -0.687169 1.625134 0
M  V30 29 H 1.107360 -3.432777 -1.215974 0
M  V30 30 H 0.452157 -3.584665 -3.598527 0
M  V30 31 H -0.863685 -1.125265 -6.414953 0
M  V30 32 H -3.592366 -0.657986 -5.196883 0
M  V30 33 H -2.722100 0.389178 -6.119999 0
M  V30 34 H -3.497484 -2.228479 -2.597587 0
M  V30 35 H -2.846906 -2.085002 -0.281500 0
M  V30 36 H 2.027821 -1.911690 1.095714 0
M  V30 37 H 2.777851 0.263440 2.078034 0
M  V30 END ATOM
M  V30 BEGIN BOND
M  V30 1 2 1 2
M  V30 2 1 2 3
M  V30 3 2 3 4
M  V30 4 2 3 5
M  V30 5 1 3 6
M  V30 6 2 6 7
M  V30 7 1 7 8
M  V30 8 2 8 9
M  V30 9 1 9 10
M  V30 10 1 10 11
M  V30 11 2 11 12
M  V30 12 1 12 13
M  V30 13 2 13 14
M  V30 14 1 14 15
M  V30 15 2 15 16
M  V30 16 2 15 17
M  V30 17 1 15 18
M  V30 18 2 18 19
M  V30 19 1 14 20
M  V30 20 2 20 21
M  V30 21 1 9 22
M  V30 22 2 22 23
M  V30 23 1 23 6
M  V30 24 1 21 11
M  V30 25 1 1 24
M  V30 26 1 1 25
M  V30 27 1 2 26
M  V30 28 1 7 27
M  V30 29 1 8 28
M  V30 30 1 12 29
M  V30 31 1 13 30
M  V30 32 1 18 31
M  V30 33 1 19 32
M  V30 34 1 19 33
M  V30 35 1 20 34
M  V30 36 1 21 35
M  V30 37 1 22 36
M  V30 38 1 23 37
M  V30 END BOND
M  V30 END CTAB
M  END
>  <Dataset>  (321) 
ChEMBL_Kinases

>  <Ligand_Instance>  (321) 
nan

>  <PDB_ID>  (321) 
nan

>  <Standardized_SMILES>  (321) 
C=CS(=O)(=O)c1ccc(Oc2ccc(S(=O)(=O)C=C)cc2)cc1

>  <Name>  (321) 
nan

>  <Pocket>  (321) 
nan

>  <ATP_Site>  (321) 
nan

>  <Peripheral>  (321) 
nan

>  <Num_H_Atoms_ProtBoundConf>  (321) 
nan

>  <Num_Resolved_Atoms>  (321) 
nan

>  <Num_Not_Resolved_Atoms>  (321) 
nan

$$$$
CHEMBL1454143
     RDKit          3D

  0  0  0  0  0  0  0  0  0  0999 V3000
M  V30 BEGIN CTAB
M  V30 COUNTS 55 58 0 0 0
M  V30 BEGIN ATOM
M  V30 1 C 1.264528 -3.164821 2.536662 0
M  V30 2 C 2.058861 -4.212828 1.854929 0
M  V30 3 C 2.437208 -5.383813 2.496096 0
M  V30 4 C 3.175514 -6.365491 1.871335 0
M  V30 5 C 3.557874 -6.173072 0.538898 0
M  V30 6 C 3.179411 -5.001026 -0.103728 0
M  V30 7 C 2.433376 -4.007092 0.525201 0
M  V30 8 C 2.081986 -2.797985 -0.236245 0
M  V30 9 N 1.379795 -1.816875 0.325051 0
M  V30 10 C 1.229819 -0.872792 -0.621279 0
M  V30 11 C 0.499398 0.395538 -0.395801 0
M  V30 12 N -0.830032 0.452884 -0.917675 0
M  V30 13 C -1.444677 1.762451 -0.879043 0
M  V30 14 C -1.533481 2.370899 0.438412 0
M  V30 15 C -0.647479 3.069774 1.224205 0
M  V30 16 C 0.729623 3.455704 0.873212 0
M  V30 17 N -1.203327 3.398975 2.389141 0
M  V30 18 N -2.459879 2.946517 2.435830 0
M  V30 19 C -3.351157 3.129543 3.562316 0
M  V30 20 C -2.666673 2.322680 1.256650 0
M  V30 21 C -4.009139 1.698116 0.999180 0
M  V30 22 C -1.653736 -0.530822 -0.261825 0
M  V30 23 C -1.346236 -1.963917 -0.558824 0
M  V30 24 C -2.677096 -1.340124 -0.908986 0
M  V30 25 C 1.869718 -1.317296 -1.785880 0
M  V30 26 C 1.941431 -0.572790 -3.069844 0
M  V30 27 O 2.376528 -2.504462 -1.495443 0
M  V30 28 H 1.046993 -3.546164 3.578097 0
M  V30 29 H 1.807919 -2.220859 2.665184 0
M  V30 30 H 0.278551 -3.023610 2.049299 0
M  V30 31 H 2.130629 -5.511432 3.524976 0
M  V30 32 H 3.449384 -7.272785 2.421840 0
M  V30 33 H 4.132110 -6.924323 0.036077 0
M  V30 34 H 3.483985 -4.871302 -1.130782 0
M  V30 35 H 0.495861 0.645433 0.700386 0
M  V30 36 H 1.070070 1.212382 -0.890503 0
M  V30 37 H -2.487147 1.667840 -1.299237 0
M  V30 38 H -0.898365 2.400467 -1.623681 0
M  V30 39 H 0.971715 4.474777 1.266960 0
M  V30 40 H 0.847110 3.508372 -0.230889 0
M  V30 41 H 1.507447 2.781832 1.249198 0
M  V30 42 H -4.318523 2.622356 3.319736 0
M  V30 43 H -2.970652 2.627115 4.476710 0
M  V30 44 H -3.532736 4.195042 3.760209 0
M  V30 45 H -4.182029 0.877606 1.743020 0
M  V30 46 H -4.037827 1.290098 -0.019213 0
M  V30 47 H -4.760967 2.482220 1.213726 0
M  V30 48 H -1.869262 -0.233180 0.791533 0
M  V30 49 H -1.304678 -2.686755 0.285104 0
M  V30 50 H -0.753477 -2.274879 -1.422579 0
M  V30 51 H -3.536559 -1.699738 -0.308308 0
M  V30 52 H -2.941896 -1.254904 -1.979432 0
M  V30 53 H 1.114965 -0.895867 -3.746179 0
M  V30 54 H 2.908843 -0.796861 -3.565161 0
M  V30 55 H 1.901459 0.508310 -2.851390 0
M  V30 END ATOM
M  V30 BEGIN BOND
M  V30 1 1 1 2
M  V30 2 2 2 3
M  V30 3 1 3 4
M  V30 4 2 4 5
M  V30 5 1 5 6
M  V30 6 2 6 7
M  V30 7 1 7 8
M  V30 8 2 8 9
M  V30 9 1 9 10
M  V30 10 1 10 11
M  V30 11 1 11 12
M  V30 12 1 12 13
M  V30 13 1 13 14
M  V30 14 1 14 15
M  V30 15 1 15 16
M  V30 16 2 15 17
M  V30 17 1 17 18
M  V30 18 1 18 19
M  V30 19 1 18 20
M  V30 20 1 20 21
M  V30 21 1 12 22
M  V30 22 1 22 23
M  V30 23 1 23 24
M  V30 24 2 10 25
M  V30 25 1 25 26
M  V30 26 1 25 27
M  V30 27 1 7 2
M  V30 28 1 27 8
M  V30 29 2 20 14
M  V30 30 1 24 22
M  V30 31 1 1 28
M  V30 32 1 1 29
M  V30 33 1 1 30
M  V30 34 1 3 31
M  V30 35 1 4 32
M  V30 36 1 5 33
M  V30 37 1 6 34
M  V30 38 1 11 35
M  V30 39 1 11 36
M  V30 40 1 13 37
M  V30 41 1 13 38
M  V30 42 1 16 39
M  V30 43 1 16 40
M  V30 44 1 16 41
M  V30 45 1 19 42
M  V30 46 1 19 43
M  V30 47 1 19 44
M  V30 48 1 21 45
M  V30 49 1 21 46
M  V30 50 1 21 47
M  V30 51 1 22 48
M  V30 52 1 23 49
M  V30 53 1 23 50
M  V30 54 1 24 51
M  V30 55 1 24 52
M  V30 56 1 26 53
M  V30 57 1 26 54
M  V30 58 1 26 55
M  V30 END BOND
M  V30 END CTAB
M  END
>  <Dataset>  (322) 
ChEMBL_Kinases

>  <Ligand_Instance>  (322) 
nan

>  <PDB_ID>  (322) 
nan

>  <Standardized_SMILES>  (322) 
Cc1ccccc1-c1nc(CN(Cc2c(C)nn(C)c2C)C2CC2)c(C)o1

>  <Name>  (322) 
nan

>  <Pocket>  (322) 
nan

>  <ATP_Site>  (322) 
nan

>  <Peripheral>  (322) 
nan

>  <Num_H_Atoms_ProtBoundConf>  (322) 
nan

>  <Num_Resolved_Atoms>  (322) 
nan

>  <Num_Not_Resolved_Atoms>  (322) 
nan

$$$$
CHEMBL1454114
     RDKit          3D

  0  0  0  0  0  0  0  0  0  0999 V3000
M  V30 BEGIN CTAB
M  V30 COUNTS 32 33 0 0 0
M  V30 BEGIN ATOM
M  V30 1 C -1.283290 -2.187196 4.388828 0
M  V30 2 C -0.138756 -1.482615 3.775642 0
M  V30 3 C 0.424125 -1.837906 2.628248 0
M  V30 4 C 1.577769 -1.171154 1.957833 0
M  V30 5 N 1.128033 -0.712525 0.634072 0
M  V30 6 C 1.227435 -1.500910 -0.463634 0
M  V30 7 S 1.881369 -3.155258 -0.536975 0
M  V30 8 C 0.593241 -4.398885 -0.247277 0
M  V30 9 N 0.726064 -0.775702 -1.506966 0
M  V30 10 C 0.328665 0.438522 -1.039909 0
M  V30 11 C 0.583506 0.479708 0.319701 0
M  V30 12 C 0.281892 1.588328 1.052164 0
M  V30 13 O 0.522476 1.604784 2.290230 0
M  V30 14 N -0.275831 2.676102 0.459874 0
M  V30 15 C -0.521527 2.622028 -0.879911 0
M  V30 16 O -1.045445 3.629755 -1.464642 0
M  V30 17 N -0.224114 1.527961 -1.604010 0
M  V30 18 C -0.513707 1.538388 -3.032507 0
M  V30 19 H -1.038313 -2.672087 5.361813 0
M  V30 20 H -2.047881 -1.397647 4.647111 0
M  V30 21 H -1.789817 -2.882449 3.685741 0
M  V30 22 H 0.284308 -0.628599 4.264444 0
M  V30 23 H 0.030312 -2.703755 2.087882 0
M  V30 24 H 1.923616 -0.270355 2.528091 0
M  V30 25 H 2.438269 -1.837229 1.854393 0
M  V30 26 H 0.575862 -4.677873 0.832501 0
M  V30 27 H 0.777159 -5.295249 -0.892869 0
M  V30 28 H -0.383752 -3.927815 -0.483402 0
M  V30 29 H -0.511566 3.536408 1.019111 0
M  V30 30 H -0.413543 0.515626 -3.458569 0
M  V30 31 H -1.591228 1.798454 -3.190385 0
M  V30 32 H 0.172558 2.214848 -3.579250 0
M  V30 END ATOM
M  V30 BEGIN BOND
M  V30 1 1 1 2
M  V30 2 2 2 3
M  V30 3 1 3 4
M  V30 4 1 4 5
M  V30 5 1 5 6
M  V30 6 1 6 7
M  V30 7 1 7 8
M  V30 8 2 6 9
M  V30 9 1 9 10
M  V30 10 2 10 11
M  V30 11 1 11 12
M  V30 12 2 12 13
M  V30 13 1 12 14
M  V30 14 1 14 15
M  V30 15 2 15 16
M  V30 16 1 15 17
M  V30 17 1 17 18
M  V30 18 1 11 5
M  V30 19 1 17 10
M  V30 20 1 1 19
M  V30 21 1 1 20
M  V30 22 1 1 21
M  V30 23 1 2 22
M  V30 24 1 3 23
M  V30 25 1 4 24
M  V30 26 1 4 25
M  V30 27 1 8 26
M  V30 28 1 8 27
M  V30 29 1 8 28
M  V30 30 1 14 29
M  V30 31 1 18 30
M  V30 32 1 18 31
M  V30 33 1 18 32
M  V30 END BOND
M  V30 END CTAB
M  END
>  <Dataset>  (323) 
ChEMBL_Kinases

>  <Ligand_Instance>  (323) 
nan

>  <PDB_ID>  (323) 
nan

>  <Standardized_SMILES>  (323) 
C/C=C/Cn1c(SC)nc2c1c(=O)[nH]c(=O)n2C

>  <Name>  (323) 
nan

>  <Pocket>  (323) 
nan

>  <ATP_Site>  (323) 
nan

>  <Peripheral>  (323) 
nan

>  <Num_H_Atoms_ProtBoundConf>  (323) 
nan

>  <Num_Resolved_Atoms>  (323) 
nan

>  <Num_Not_Resolved_Atoms>  (323) 
nan

$$$$
CHEMBL1454081
     RDKit          3D

  0  0  0  0  0  0  0  0  0  0999 V3000
M  V30 BEGIN CTAB
M  V30 COUNTS 30 32 0 0 0
M  V30 BEGIN ATOM
M  V30 1 O 0.693567 -2.567585 1.352391 0
M  V30 2 C 0.901851 -1.605308 0.582245 0
M  V30 3 C 2.182016 -1.097011 0.684125 0
M  V30 4 C 3.134200 -1.596877 1.546835 0
M  V30 5 C 4.400068 -1.050042 1.608137 0
M  V30 6 C 4.739861 0.014378 0.802220 0
M  V30 7 C 3.797142 0.526235 -0.067121 0
M  V30 8 C 2.536156 -0.030580 -0.117358 0
M  V30 9 N 1.591423 0.440127 -0.950870 0
M  V30 10 C 0.364086 -0.105529 -0.996407 0
M  V30 11 S -0.629674 0.581150 -2.069587 0
M  V30 12 N -0.055670 -1.141872 -0.249616 0
M  V30 13 C -1.379382 -1.719177 -0.302023 0
M  V30 14 C -2.280963 -1.066208 0.675257 0
M  V30 15 C -2.378077 -1.511631 1.991209 0
M  V30 16 C -3.203616 -0.944727 2.939095 0
M  V30 17 C -3.994187 0.127212 2.601797 0
M  V30 18 N -3.917064 0.572752 1.339556 0
M  V30 19 C -3.107107 0.008552 0.428239 0
M  V30 20 H 2.868824 -2.435500 2.182811 0
M  V30 21 H 5.131652 -1.455284 2.289956 0
M  V30 22 H 5.745888 0.443788 0.855586 0
M  V30 23 H 4.021146 1.374409 -0.729672 0
M  V30 24 H 1.891458 1.245477 -1.542068 0
M  V30 25 H -1.250642 -2.798664 -0.045119 0
M  V30 26 H -1.737771 -1.605702 -1.345484 0
M  V30 27 H -1.811571 -2.342745 2.364503 0
M  V30 28 H -3.269652 -1.299804 3.957266 0
M  V30 29 H -4.642968 0.577916 3.334987 0
M  V30 30 H -3.138119 0.445110 -0.537985 0
M  V30 END ATOM
M  V30 BEGIN BOND
M  V30 1 2 1 2
M  V30 2 1 2 3
M  V30 3 2 3 4
M  V30 4 1 4 5
M  V30 5 2 5 6
M  V30 6 1 6 7
M  V30 7 2 7 8
M  V30 8 1 8 9
M  V30 9 1 9 10
M  V30 10 2 10 11
M  V30 11 1 10 12
M  V30 12 1 12 13
M  V30 13 1 13 14
M  V30 14 2 14 15
M  V30 15 1 15 16
M  V30 16 2 16 17
M  V30 17 1 17 18
M  V30 18 2 18 19
M  V30 19 1 12 2
M  V30 20 1 19 14
M  V30 21 1 8 3
M  V30 22 1 4 20
M  V30 23 1 5 21
M  V30 24 1 6 22
M  V30 25 1 7 23
M  V30 26 1 9 24
M  V30 27 1 13 25
M  V30 28 1 13 26
M  V30 29 1 15 27
M  V30 30 1 16 28
M  V30 31 1 17 29
M  V30 32 1 19 30
M  V30 END BOND
M  V30 END CTAB
M  END
>  <Dataset>  (324) 
ChEMBL_Kinases

>  <Ligand_Instance>  (324) 
nan

>  <PDB_ID>  (324) 
nan

>  <Standardized_SMILES>  (324) 
O=c1c2ccccc2[nH]c(=S)n1Cc1cccnc1

>  <Name>  (324) 
nan

>  <Pocket>  (324) 
nan

>  <ATP_Site>  (324) 
nan

>  <Peripheral>  (324) 
nan

>  <Num_H_Atoms_ProtBoundConf>  (324) 
nan

>  <Num_Resolved_Atoms>  (324) 
nan

>  <Num_Not_Resolved_Atoms>  (324) 
nan

$$$$
CHEMBL1454033
     RDKit          3D

  0  0  0  0  0  0  0  0  0  0999 V3000
M  V30 BEGIN CTAB
M  V30 COUNTS 57 59 0 0 0
M  V30 BEGIN ATOM
M  V30 1 C -2.020705 -4.587237 3.511727 0
M  V30 2 O -1.994191 -4.838401 2.123477 0
M  V30 3 C -1.541966 -3.826596 1.289910 0
M  V30 4 C -1.149014 -2.642622 1.878746 0
M  V30 5 C -0.704209 -1.665947 0.978679 0
M  V30 6 C -0.655456 -1.858614 -0.411195 0
M  V30 7 O -0.224539 -0.869090 -1.097483 0
M  V30 8 C 0.199293 0.081638 -1.869196 0
M  V30 9 C 1.707856 0.176828 -1.708725 0
M  V30 10 C 2.276083 1.247740 -1.158580 0
M  V30 11 C 1.429383 2.371702 -0.691620 0
M  V30 12 C 1.544570 2.368109 0.781859 0
M  V30 13 C 1.656694 2.352450 1.998259 0
M  V30 14 C 1.812301 2.326814 3.425249 0
M  V30 15 C 3.003990 2.879327 3.897617 0
M  V30 16 C 3.224127 2.888752 5.276864 0
M  V30 17 C 2.246595 2.348519 6.103186 0
M  V30 18 Br 2.596773 2.385898 7.989530 0
M  V30 19 C 1.074061 1.805952 5.623420 0
M  V30 20 C 0.841148 1.790325 4.242879 0
M  V30 21 O 0.139955 2.357581 -1.016607 0
M  V30 22 C -0.384238 1.445983 -1.895771 0
M  V30 23 C -1.862187 1.498567 -1.564039 0
M  V30 24 O -2.127844 1.155616 -0.255461 0
M  V30 25 C -1.068720 -3.077492 -0.916934 0
M  V30 26 C -1.033706 -3.325276 -2.378603 0
M  V30 27 C 0.390355 -3.183512 -2.871100 0
M  V30 28 C -1.501224 -4.729683 -2.673547 0
M  V30 29 C -1.877214 -2.359796 -3.152552 0
M  V30 30 C -1.515122 -4.070110 -0.067633 0
M  V30 31 H -2.640149 -3.699510 3.779446 0
M  V30 32 H -2.425529 -5.460935 4.057546 0
M  V30 33 H -0.971583 -4.370741 3.857146 0
M  V30 34 H -1.170810 -2.454045 2.942725 0
M  V30 35 H -0.393907 -0.726611 1.461192 0
M  V30 36 H 0.147190 -0.298494 -2.939235 0
M  V30 37 H 2.397061 -0.610360 -2.028345 0
M  V30 38 H 3.348515 1.348795 -1.028709 0
M  V30 39 H 1.956301 3.310024 -1.033489 0
M  V30 40 H 3.755208 3.296091 3.240886 0
M  V30 41 H 4.116968 3.298773 5.684322 0
M  V30 42 H 0.327057 1.390753 6.287792 0
M  V30 43 H -0.066495 1.373154 3.832325 0
M  V30 44 H -0.292738 1.904580 -2.904978 0
M  V30 45 H -2.141396 2.591283 -1.616719 0
M  V30 46 H -2.493633 1.029564 -2.326331 0
M  V30 47 H -3.088179 1.149704 -0.121596 0
M  V30 48 H 1.017677 -2.690899 -2.077343 0
M  V30 49 H 0.454455 -2.564141 -3.804911 0
M  V30 50 H 0.824867 -4.181238 -2.999964 0
M  V30 51 H -2.588029 -4.817591 -2.493385 0
M  V30 52 H -0.895440 -5.496158 -2.177049 0
M  V30 53 H -1.332551 -4.868221 -3.779791 0
M  V30 54 H -1.412278 -2.039399 -4.116068 0
M  V30 55 H -2.175674 -1.478571 -2.543338 0
M  V30 56 H -2.830748 -2.858040 -3.421548 0
M  V30 57 H -1.846999 -5.038943 -0.431843 0
M  V30 END ATOM
M  V30 BEGIN BOND
M  V30 1 1 1 2
M  V30 2 1 2 3
M  V30 3 2 3 4
M  V30 4 1 4 5
M  V30 5 2 5 6
M  V30 6 1 6 7
M  V30 7 1 7 8
M  V30 8 1 8 9
M  V30 9 2 9 10
M  V30 10 1 10 11
M  V30 11 1 11 12
M  V30 12 3 12 13
M  V30 13 1 13 14
M  V30 14 2 14 15
M  V30 15 1 15 16
M  V30 16 2 16 17
M  V30 17 1 17 18
M  V30 18 1 17 19
M  V30 19 2 19 20
M  V30 20 1 11 21
M  V30 21 1 21 22
M  V30 22 1 22 23
M  V30 23 1 23 24
M  V30 24 1 6 25
M  V30 25 1 25 26
M  V30 26 1 26 27
M  V30 27 1 26 28
M  V30 28 1 26 29
M  V30 29 2 25 30
M  V30 30 1 30 3
M  V30 31 1 22 8
M  V30 32 1 20 14
M  V30 33 1 1 31
M  V30 34 1 1 32
M  V30 35 1 1 33
M  V30 36 1 4 34
M  V30 37 1 5 35
M  V30 38 1 8 36
M  V30 39 1 9 37
M  V30 40 1 10 38
M  V30 41 1 11 39
M  V30 42 1 15 40
M  V30 43 1 16 41
M  V30 44 1 19 42
M  V30 45 1 20 43
M  V30 46 1 22 44
M  V30 47 1 23 45
M  V30 48 1 23 46
M  V30 49 1 24 47
M  V30 50 1 27 48
M  V30 51 1 27 49
M  V30 52 1 27 50
M  V30 53 1 28 51
M  V30 54 1 28 52
M  V30 55 1 28 53
M  V30 56 1 29 54
M  V30 57 1 29 55
M  V30 58 1 29 56
M  V30 59 1 30 57
M  V30 END BOND
M  V30 END CTAB
M  END
>  <Dataset>  (325) 
ChEMBL_Kinases

>  <Ligand_Instance>  (325) 
nan

>  <PDB_ID>  (325) 
nan

>  <Standardized_SMILES>  (325) 
COc1ccc(OC2C=CC(C#Cc3ccc(Br)cc3)OC2CO)c(C(C)(C)C)c1

>  <Name>  (325) 
nan

>  <Pocket>  (325) 
nan

>  <ATP_Site>  (325) 
nan

>  <Peripheral>  (325) 
nan

>  <Num_H_Atoms_ProtBoundConf>  (325) 
nan

>  <Num_Resolved_Atoms>  (325) 
nan

>  <Num_Not_Resolved_Atoms>  (325) 
nan

$$$$
CHEMBL1451420
     RDKit          3D

  0  0  0  0  0  0  0  0  0  0999 V3000
M  V30 BEGIN CTAB
M  V30 COUNTS 58 59 0 0 0
M  V30 BEGIN ATOM
M  V30 1 C 1.538280 -1.771349 2.820836 0
M  V30 2 C 1.630546 -1.386844 1.403997 0
M  V30 3 C 0.536348 -0.678976 0.720551 0
M  V30 4 C 1.007118 -0.456377 -0.713643 0
M  V30 5 C 0.344018 0.722483 1.266743 0
M  V30 6 O -0.607217 1.461392 1.696775 0
M  V30 7 N 1.532466 1.513829 1.358189 0
M  V30 8 C 1.575865 2.869451 1.848326 0
M  V30 9 C 2.592207 2.937041 2.976705 0
M  V30 10 C 3.912344 2.803239 2.270891 0
M  V30 11 C 3.683269 3.279330 0.852095 0
M  V30 12 C 2.245475 3.737969 0.793576 0
M  V30 13 N -0.738544 -1.358344 0.676977 0
M  V30 14 C -1.495460 -1.456545 1.872073 0
M  V30 15 O -1.083250 -0.824388 2.909600 0
M  V30 16 C -2.692940 -2.060335 2.468602 0
M  V30 17 N -3.488091 -2.856537 1.521586 0
M  V30 18 C -4.053337 -2.087387 0.469650 0
M  V30 19 C -4.876851 -2.678734 -0.604182 0
M  V30 20 O -3.819289 -0.840342 0.485732 0
M  V30 21 C -1.022720 -1.900740 -0.636785 0
M  V30 22 C -1.638532 -1.428214 -1.774483 0
M  V30 23 C -1.740933 -2.235632 -2.880911 0
M  V30 24 C -1.245101 -3.519462 -2.900140 0
M  V30 25 C -1.423957 -4.282801 -4.162993 0
M  V30 26 C -0.624481 -4.013443 -1.772073 0
M  V30 27 C -0.510034 -3.205990 -0.633697 0
M  V30 28 H 2.567392 -2.237458 3.059305 0
M  V30 29 H 0.864410 -2.626952 3.027244 0
M  V30 30 H 1.484121 -0.963719 3.562300 0
M  V30 31 H 2.566579 -0.791792 1.235388 0
M  V30 32 H 1.821048 -2.332268 0.816911 0
M  V30 33 H 0.985990 -1.368017 -1.314362 0
M  V30 34 H 2.069985 -0.160504 -0.626091 0
M  V30 35 H 0.465301 0.384554 -1.187187 0
M  V30 36 H 2.517210 1.237214 1.091539 0
M  V30 37 H 0.601093 3.264219 2.157217 0
M  V30 38 H 2.423133 2.066845 3.654663 0
M  V30 39 H 2.563475 3.903441 3.507339 0
M  V30 40 H 4.289428 1.759238 2.269966 0
M  V30 41 H 4.693471 3.419173 2.795908 0
M  V30 42 H 4.340418 4.153718 0.676358 0
M  V30 43 H 3.871442 2.486015 0.096060 0
M  V30 44 H 1.742826 3.500922 -0.162241 0
M  V30 45 H 2.164489 4.816966 1.063765 0
M  V30 46 H -2.476042 -2.788258 3.296826 0
M  V30 47 H -3.397997 -1.307499 2.931333 0
M  V30 48 H -3.668587 -3.901768 1.551743 0
M  V30 49 H -4.270711 -3.108817 -1.444942 0
M  V30 50 H -5.468550 -1.858172 -1.069676 0
M  V30 51 H -5.556404 -3.411245 -0.160822 0
M  V30 52 H -1.958840 -0.415406 -1.571930 0
M  V30 53 H -2.257032 -1.707482 -3.697518 0
M  V30 54 H -0.815762 -5.218663 -4.084423 0
M  V30 55 H -1.196946 -3.691226 -5.057507 0
M  V30 56 H -2.493732 -4.635427 -4.134888 0
M  V30 57 H -0.268589 -5.021627 -1.875598 0
M  V30 58 H 0.004790 -3.766150 0.146589 0
M  V30 END ATOM
M  V30 BEGIN BOND
M  V30 1 1 1 2
M  V30 2 1 2 3
M  V30 3 1 3 4
M  V30 4 1 3 5
M  V30 5 2 5 6
M  V30 6 1 5 7
M  V30 7 1 7 8
M  V30 8 1 8 9
M  V30 9 1 9 10
M  V30 10 1 10 11
M  V30 11 1 11 12
M  V30 12 1 3 13
M  V30 13 1 13 14
M  V30 14 2 14 15
M  V30 15 1 14 16
M  V30 16 1 16 17
M  V30 17 1 17 18
M  V30 18 1 18 19
M  V30 19 2 18 20
M  V30 20 1 13 21
M  V30 21 2 21 22
M  V30 22 1 22 23
M  V30 23 2 23 24
M  V30 24 1 24 25
M  V30 25 1 24 26
M  V30 26 2 26 27
M  V30 27 1 12 8
M  V30 28 1 27 21
M  V30 29 1 1 28
M  V30 30 1 1 29
M  V30 31 1 1 30
M  V30 32 1 2 31
M  V30 33 1 2 32
M  V30 34 1 4 33
M  V30 35 1 4 34
M  V30 36 1 4 35
M  V30 37 1 7 36
M  V30 38 1 8 37
M  V30 39 1 9 38
M  V30 40 1 9 39
M  V30 41 1 10 40
M  V30 42 1 10 41
M  V30 43 1 11 42
M  V30 44 1 11 43
M  V30 45 1 12 44
M  V30 46 1 12 45
M  V30 47 1 16 46
M  V30 48 1 16 47
M  V30 49 1 17 48
M  V30 50 1 19 49
M  V30 51 1 19 50
M  V30 52 1 19 51
M  V30 53 1 22 52
M  V30 54 1 23 53
M  V30 55 1 25 54
M  V30 56 1 25 55
M  V30 57 1 25 56
M  V30 58 1 26 57
M  V30 59 1 27 58
M  V30 END BOND
M  V30 END CTAB
M  END
>  <Dataset>  (326) 
ChEMBL_Kinases

>  <Ligand_Instance>  (326) 
nan

>  <PDB_ID>  (326) 
nan

>  <Standardized_SMILES>  (326) 
CCC(C)(C(=O)NC1CCCC1)N(C(=O)CNC(C)=O)c1ccc(C)cc1

>  <Name>  (326) 
nan

>  <Pocket>  (326) 
nan

>  <ATP_Site>  (326) 
nan

>  <Peripheral>  (326) 
nan

>  <Num_H_Atoms_ProtBoundConf>  (326) 
nan

>  <Num_Resolved_Atoms>  (326) 
nan

>  <Num_Not_Resolved_Atoms>  (326) 
nan

$$$$
CHEMBL1451654
     RDKit          3D

  0  0  0  0  0  0  0  0  0  0999 V3000
M  V30 BEGIN CTAB
M  V30 COUNTS 26 26 0 0 0
M  V30 BEGIN ATOM
M  V30 1 O -2.237332 -1.953189 1.468140 0
M  V30 2 C -2.759364 -0.816489 1.564983 0
M  V30 3 O -2.615881 -1.463066 2.781644 0
M  V30 4 C -2.967124 -0.028303 0.354106 0
M  V30 5 C -2.512610 -0.682393 -0.902497 0
M  V30 6 C -1.042762 -1.014338 -0.945477 0
M  V30 7 N -0.322237 0.207128 -0.801698 0
M  V30 8 S 1.368588 0.099860 -0.817952 0
M  V30 9 O 1.912633 1.510489 -0.731620 0
M  V30 10 O 1.777914 -0.436108 -2.180149 0
M  V30 11 C 2.030581 -0.831071 0.438393 0
M  V30 12 C 1.640004 -1.603818 1.593339 0
M  V30 13 C 2.595948 -2.200597 2.341782 0
M  V30 14 C 3.996759 -2.027639 1.933564 0
M  V30 15 Br 5.371601 -2.915906 3.053940 0
M  V30 16 S 3.914815 -0.965110 0.416183 0
M  V30 17 H -2.903543 -1.064812 3.666615 0
M  V30 18 H -2.409337 0.929941 0.489779 0
M  V30 19 H -4.044360 0.187534 0.235180 0
M  V30 20 H -3.126798 -1.570201 -1.151040 0
M  V30 21 H -2.677670 0.050853 -1.718134 0
M  V30 22 H -0.867461 -1.362505 -2.008060 0
M  V30 23 H -0.723969 -1.823599 -0.295875 0
M  V30 24 H -0.652299 0.964294 -1.401144 0
M  V30 25 H 0.576653 -1.584327 1.689390 0
M  V30 26 H 2.265632 -2.766243 3.192151 0
M  V30 END ATOM
M  V30 BEGIN BOND
M  V30 1 2 1 2
M  V30 2 1 2 3
M  V30 3 1 2 4
M  V30 4 1 4 5
M  V30 5 1 5 6
M  V30 6 1 6 7
M  V30 7 1 7 8
M  V30 8 2 8 9
M  V30 9 2 8 10
M  V30 10 1 8 11
M  V30 11 2 11 12
M  V30 12 1 12 13
M  V30 13 2 13 14
M  V30 14 1 14 15
M  V30 15 1 14 16
M  V30 16 1 16 11
M  V30 17 1 3 17
M  V30 18 1 4 18
M  V30 19 1 4 19
M  V30 20 1 5 20
M  V30 21 1 5 21
M  V30 22 1 6 22
M  V30 23 1 6 23
M  V30 24 1 7 24
M  V30 25 1 12 25
M  V30 26 1 13 26
M  V30 END BOND
M  V30 END CTAB
M  END
>  <Dataset>  (327) 
ChEMBL_Kinases

>  <Ligand_Instance>  (327) 
nan

>  <PDB_ID>  (327) 
nan

>  <Standardized_SMILES>  (327) 
O=C(O)CCCNS(=O)(=O)c1ccc(Br)s1

>  <Name>  (327) 
nan

>  <Pocket>  (327) 
nan

>  <ATP_Site>  (327) 
nan

>  <Peripheral>  (327) 
nan

>  <Num_H_Atoms_ProtBoundConf>  (327) 
nan

>  <Num_Resolved_Atoms>  (327) 
nan

>  <Num_Not_Resolved_Atoms>  (327) 
nan

$$$$
CHEMBL1451698
     RDKit          3D

  0  0  0  0  0  0  0  0  0  0999 V3000
M  V30 BEGIN CTAB
M  V30 COUNTS 27 28 0 0 0
M  V30 BEGIN ATOM
M  V30 1 C -1.158078 -5.394578 2.966270 0
M  V30 2 O -0.438704 -4.228289 2.709367 0
M  V30 3 C -0.758380 -3.286905 1.759790 0
M  V30 4 O -1.800305 -3.594086 1.124707 0
M  V30 5 C 0.145546 -2.106240 1.644538 0
M  V30 6 S 1.585308 -1.821931 2.624298 0
M  V30 7 C 1.939005 -0.186156 1.723657 0
M  V30 8 S 3.216951 0.780550 2.072641 0
M  V30 9 N 0.907717 -0.099382 0.810193 0
M  V30 10 C 0.977799 1.077020 0.010466 0
M  V30 11 C 1.907826 1.231426 -0.976124 0
M  V30 12 C 1.910083 2.407171 -1.710639 0
M  V30 13 C 0.979472 3.390846 -1.432390 0
M  V30 14 C 0.044155 3.212654 -0.425918 0
M  V30 15 Cl -1.146755 4.443607 -0.052506 0
M  V30 16 C 0.024909 2.053813 0.314342 0
M  V30 17 C 0.024544 -1.080651 0.797280 0
M  V30 18 N -1.064087 -1.011127 -0.150867 0
M  V30 19 H -2.101132 -5.507945 2.407025 0
M  V30 20 H -0.558599 -6.316746 2.852230 0
M  V30 21 H -1.436878 -5.358418 4.054835 0
M  V30 22 H 2.612992 0.452366 -1.165981 0
M  V30 23 H 2.629123 2.570742 -2.500950 0
M  V30 24 H 0.924471 4.335565 -1.968206 0
M  V30 25 H -0.712485 1.930113 1.097396 0
M  V30 26 H -2.033942 -0.672772 0.000780 0
M  V30 27 H -0.774897 -1.365009 -1.108002 0
M  V30 END ATOM
M  V30 BEGIN BOND
M  V30 1 1 1 2
M  V30 2 1 2 3
M  V30 3 2 3 4
M  V30 4 1 3 5
M  V30 5 1 5 6
M  V30 6 1 6 7
M  V30 7 2 7 8
M  V30 8 1 7 9
M  V30 9 1 9 10
M  V30 10 2 10 11
M  V30 11 1 11 12
M  V30 12 2 12 13
M  V30 13 1 13 14
M  V30 14 1 14 15
M  V30 15 2 14 16
M  V30 16 1 9 17
M  V30 17 1 17 18
M  V30 18 2 17 5
M  V30 19 1 16 10
M  V30 20 1 1 19
M  V30 21 1 1 20
M  V30 22 1 1 21
M  V30 23 1 11 22
M  V30 24 1 12 23
M  V30 25 1 13 24
M  V30 26 1 16 25
M  V30 27 1 18 26
M  V30 28 1 18 27
M  V30 END BOND
M  V30 END CTAB
M  END
>  <Dataset>  (328) 
ChEMBL_Kinases

>  <Ligand_Instance>  (328) 
nan

>  <PDB_ID>  (328) 
nan

>  <Standardized_SMILES>  (328) 
COC(=O)c1sc(=S)n(-c2cccc(Cl)c2)c1N

>  <Name>  (328) 
nan

>  <Pocket>  (328) 
nan

>  <ATP_Site>  (328) 
nan

>  <Peripheral>  (328) 
nan

>  <Num_H_Atoms_ProtBoundConf>  (328) 
nan

>  <Num_Resolved_Atoms>  (328) 
nan

>  <Num_Not_Resolved_Atoms>  (328) 
nan

$$$$
CHEMBL1451701
     RDKit          3D

  0  0  0  0  0  0  0  0  0  0999 V3000
M  V30 BEGIN CTAB
M  V30 COUNTS 42 45 0 0 0
M  V30 BEGIN ATOM
M  V30 1 C -1.187396 -4.518830 2.018624 0
M  V30 2 C -2.109484 -3.463336 1.460285 0
M  V30 3 C -1.726272 -3.008147 0.094209 0
M  V30 4 N -0.421889 -2.426414 -0.023158 0
M  V30 5 C 0.014625 -1.063920 0.105963 0
M  V30 6 O -0.772795 -0.139550 0.366215 0
M  V30 7 C 1.456755 -0.987288 -0.117004 0
M  V30 8 C 2.237835 0.073785 -0.088897 0
M  V30 9 C 1.701138 1.398961 0.198279 0
M  V30 10 N 1.870277 2.542647 -0.506525 0
M  V30 11 C 1.348107 3.725762 -0.116509 0
M  V30 12 O 1.584966 4.830428 -0.916779 0
M  V30 13 C 0.630035 3.683874 1.055762 0
M  V30 14 C 0.103577 4.918144 1.439282 0
M  V30 15 C -0.646920 5.005055 2.617321 0
M  V30 16 C -0.856468 3.861164 3.387753 0
M  V30 17 C -0.323956 2.635956 2.991241 0
M  V30 18 C 0.411857 2.573653 1.826307 0
M  V30 19 N 0.977508 1.497344 1.322796 0
M  V30 20 C 1.907965 -2.346767 -0.388790 0
M  V30 21 C 3.142449 -2.889765 -0.661951 0
M  V30 22 C 3.323504 -4.237408 -0.882936 0
M  V30 23 C 2.221504 -5.061148 -0.825901 0
M  V30 24 C 0.993273 -4.497373 -0.550238 0
M  V30 25 C 0.773870 -3.157518 -0.323574 0
M  V30 26 H -1.509505 -4.830700 3.048965 0
M  V30 27 H -1.236147 -5.443855 1.410102 0
M  V30 28 H -0.163982 -4.096408 2.087845 0
M  V30 29 H -2.234690 -2.606698 2.144055 0
M  V30 30 H -3.129134 -3.946749 1.427951 0
M  V30 31 H -1.772042 -3.908394 -0.581576 0
M  V30 32 H -2.496393 -2.301686 -0.293367 0
M  V30 33 H 3.310679 -0.054544 -0.287993 0
M  V30 34 H 2.403177 5.385031 -0.812495 0
M  V30 35 H 0.221277 5.848301 0.894903 0
M  V30 36 H -1.085615 5.923347 2.974783 0
M  V30 37 H -1.414814 3.814858 4.310445 0
M  V30 38 H -0.441841 1.705262 3.537931 0
M  V30 39 H 3.992323 -2.213316 -0.700700 0
M  V30 40 H 4.285257 -4.665974 -1.097107 0
M  V30 41 H 2.321722 -6.145289 -0.995495 0
M  V30 42 H 0.160557 -5.205040 -0.518311 0
M  V30 END ATOM
M  V30 BEGIN BOND
M  V30 1 1 1 2
M  V30 2 1 2 3
M  V30 3 1 3 4
M  V30 4 1 4 5
M  V30 5 2 5 6
M  V30 6 1 5 7
M  V30 7 2 7 8
M  V30 8 1 8 9
M  V30 9 2 9 10
M  V30 10 1 10 11
M  V30 11 1 11 12
M  V30 12 2 11 13
M  V30 13 1 13 14
M  V30 14 2 14 15
M  V30 15 1 15 16
M  V30 16 2 16 17
M  V30 17 1 17 18
M  V30 18 2 18 19
M  V30 19 1 7 20
M  V30 20 2 20 21
M  V30 21 1 21 22
M  V30 22 2 22 23
M  V30 23 1 23 24
M  V30 24 2 24 25
M  V30 25 1 25 4
M  V30 26 1 19 9
M  V30 27 1 25 20
M  V30 28 1 18 13
M  V30 29 1 1 26
M  V30 30 1 1 27
M  V30 31 1 1 28
M  V30 32 1 2 29
M  V30 33 1 2 30
M  V30 34 1 3 31
M  V30 35 1 3 32
M  V30 36 1 8 33
M  V30 37 1 12 34
M  V30 38 1 14 35
M  V30 39 1 15 36
M  V30 40 1 16 37
M  V30 41 1 17 38
M  V30 42 1 21 39
M  V30 43 1 22 40
M  V30 44 1 23 41
M  V30 45 1 24 42
M  V30 END BOND
M  V30 END CTAB
M  END
>  <Dataset>  (329) 
ChEMBL_Kinases

>  <Ligand_Instance>  (329) 
nan

>  <PDB_ID>  (329) 
nan

>  <Standardized_SMILES>  (329) 
CCCN1C(=O)/C(=C\c2nc(O)c3ccccc3n2)c2ccccc21

>  <Name>  (329) 
nan

>  <Pocket>  (329) 
nan

>  <ATP_Site>  (329) 
nan

>  <Peripheral>  (329) 
nan

>  <Num_H_Atoms_ProtBoundConf>  (329) 
nan

>  <Num_Resolved_Atoms>  (329) 
nan

>  <Num_Not_Resolved_Atoms>  (329) 
nan

$$$$
CHEMBL1451780
     RDKit          3D

  0  0  0  0  0  0  0  0  0  0999 V3000
M  V30 BEGIN CTAB
M  V30 COUNTS 28 30 0 0 0
M  V30 BEGIN ATOM
M  V30 1 C -1.310641 -4.117434 0.594737 0
M  V30 2 N -0.556126 -2.957256 1.029171 0
M  V30 3 C 0.019963 -3.064559 2.240385 0
M  V30 4 O -0.097290 -4.117022 2.945285 0
M  V30 5 C 0.767520 -2.037604 2.779295 0
M  V30 6 N 1.457868 -1.818505 3.922812 0
M  V30 7 C 1.985694 -0.565501 3.835813 0
M  V30 8 N 1.622875 -0.029123 2.657822 0
M  V30 9 C 0.862096 -0.920026 1.972790 0
M  V30 10 N 0.302288 -0.777961 0.762339 0
M  V30 11 C 0.447889 0.410739 -0.008298 0
M  V30 12 C -0.778291 0.882514 -0.490856 0
M  V30 13 C -0.741453 2.049097 -1.261738 0
M  V30 14 C 0.432761 2.716290 -1.543915 0
M  V30 15 C 1.628947 2.220733 -1.049660 0
M  V30 16 C 1.620961 1.071807 -0.286552 0
M  V30 17 C -0.404065 -1.830221 0.325666 0
M  V30 18 O -0.955954 -1.763233 -0.802972 0
M  V30 19 H -0.782382 -5.074232 0.776975 0
M  V30 20 H -1.694324 -3.991483 -0.421553 0
M  V30 21 H -2.206468 -4.162085 1.278064 0
M  V30 22 H 2.588450 -0.183328 4.665221 0
M  V30 23 H 1.956769 0.938475 2.447842 0
M  V30 24 H -1.740270 0.410059 -0.308982 0
M  V30 25 H -1.672396 2.455905 -1.660450 0
M  V30 26 H 0.379032 3.628544 -2.158088 0
M  V30 27 H 2.558137 2.733267 -1.262671 0
M  V30 28 H 2.514013 0.639157 0.124127 0
M  V30 END ATOM
M  V30 BEGIN BOND
M  V30 1 1 1 2
M  V30 2 1 2 3
M  V30 3 2 3 4
M  V30 4 1 3 5
M  V30 5 1 5 6
M  V30 6 2 6 7
M  V30 7 1 7 8
M  V30 8 1 8 9
M  V30 9 1 9 10
M  V30 10 1 10 11
M  V30 11 2 11 12
M  V30 12 1 12 13
M  V30 13 2 13 14
M  V30 14 1 14 15
M  V30 15 2 15 16
M  V30 16 1 10 17
M  V30 17 2 17 18
M  V30 18 1 17 2
M  V30 19 2 9 5
M  V30 20 1 16 11
M  V30 21 1 1 19
M  V30 22 1 1 20
M  V30 23 1 1 21
M  V30 24 1 7 22
M  V30 25 1 8 23
M  V30 26 1 12 24
M  V30 27 1 13 25
M  V30 28 1 14 26
M  V30 29 1 15 27
M  V30 30 1 16 28
M  V30 END BOND
M  V30 END CTAB
M  END
>  <Dataset>  (330) 
ChEMBL_Kinases

>  <Ligand_Instance>  (330) 
nan

>  <PDB_ID>  (330) 
nan

>  <Standardized_SMILES>  (330) 
Cn1c(=O)c2nc[nH]c2n(-c2ccccc2)c1=O

>  <Name>  (330) 
nan

>  <Pocket>  (330) 
nan

>  <ATP_Site>  (330) 
nan

>  <Peripheral>  (330) 
nan

>  <Num_H_Atoms_ProtBoundConf>  (330) 
nan

>  <Num_Resolved_Atoms>  (330) 
nan

>  <Num_Not_Resolved_Atoms>  (330) 
nan

$$$$
CHEMBL1452126
     RDKit          3D

  0  0  0  0  0  0  0  0  0  0999 V3000
M  V30 BEGIN CTAB
M  V30 COUNTS 44 49 0 0 0
M  V30 BEGIN ATOM
M  V30 1 O 0.333667 -2.340531 2.710143 0
M  V30 2 C -0.108038 -1.578153 1.785223 0
M  V30 3 C 0.671856 -1.134261 0.626145 0
M  V30 4 C 2.088893 -0.732342 0.913343 0
M  V30 5 C 2.623755 -0.268501 -0.419789 0
M  V30 6 C 3.735578 -0.774303 -1.069679 0
M  V30 7 C 4.064586 -0.214625 -2.285656 0
M  V30 8 C 3.316777 0.811469 -2.838352 0
M  V30 9 C 2.193663 1.328147 -2.190144 0
M  V30 10 C 1.860638 0.769165 -0.970184 0
M  V30 11 C 0.687515 1.209326 -0.149441 0
M  V30 12 C 1.321050 1.572897 1.174172 0
M  V30 13 C 1.203187 2.796425 1.804905 0
M  V30 14 C 1.853525 2.947631 3.012812 0
M  V30 15 C 2.590821 1.921175 3.568616 0
M  V30 16 C 2.712159 0.690964 2.939250 0
M  V30 17 C 2.065448 0.518997 1.723409 0
M  V30 18 C -0.145602 -0.039331 0.035862 0
M  V30 19 C -1.340212 0.138145 0.864565 0
M  V30 20 O -2.133174 1.095204 0.855240 0
M  V30 21 N -1.422891 -1.020836 1.702626 0
M  V30 22 C -2.615879 -1.546442 2.355990 0
M  V30 23 C -3.328630 -2.528829 1.492312 0
M  V30 24 C -3.028803 -3.895397 1.541526 0
M  V30 25 C -3.849345 -4.570652 0.627653 0
M  V30 26 C -4.603058 -3.548515 0.078060 0
M  V30 27 O -4.284687 -2.402160 0.588714 0
M  V30 28 H 0.741531 -2.028375 -0.057459 0
M  V30 29 H 2.651614 -1.541169 1.355428 0
M  V30 30 H 4.249734 -1.570115 -0.559321 0
M  V30 31 H 4.941652 -0.623159 -2.784563 0
M  V30 32 H 3.600364 1.235178 -3.801756 0
M  V30 33 H 1.585142 2.120389 -2.578229 0
M  V30 34 H 0.141530 2.035345 -0.597402 0
M  V30 35 H 0.605422 3.540059 1.294119 0
M  V30 36 H 1.756487 3.910590 3.501965 0
M  V30 37 H 3.096834 2.049468 4.515675 0
M  V30 38 H 3.274205 -0.152852 3.321284 0
M  V30 39 H -0.483234 -0.357370 -0.983086 0
M  V30 40 H -3.288181 -0.680825 2.551160 0
M  V30 41 H -2.400849 -1.989590 3.348584 0
M  V30 42 H -2.302344 -4.462474 2.145031 0
M  V30 43 H -3.881048 -5.631062 0.409802 0
M  V30 44 H -5.353776 -3.729525 -0.680964 0
M  V30 END ATOM
M  V30 BEGIN BOND
M  V30 1 2 1 2
M  V30 2 1 2 3
M  V30 3 1 3 4
M  V30 4 1 4 5
M  V30 5 2 5 6
M  V30 6 1 6 7
M  V30 7 2 7 8
M  V30 8 1 8 9
M  V30 9 2 9 10
M  V30 10 1 10 11
M  V30 11 1 11 12
M  V30 12 2 12 13
M  V30 13 1 13 14
M  V30 14 2 14 15
M  V30 15 1 15 16
M  V30 16 2 16 17
M  V30 17 1 11 18
M  V30 18 1 18 19
M  V30 19 2 19 20
M  V30 20 1 19 21
M  V30 21 1 21 22
M  V30 22 1 22 23
M  V30 23 2 23 24
M  V30 24 1 24 25
M  V30 25 2 25 26
M  V30 26 1 26 27
M  V30 27 1 21 2
M  V30 28 1 27 23
M  V30 29 1 18 3
M  V30 30 1 17 4
M  V30 31 1 10 5
M  V30 32 1 17 12
M  V30 33 1 3 28
M  V30 34 1 4 29
M  V30 35 1 6 30
M  V30 36 1 7 31
M  V30 37 1 8 32
M  V30 38 1 9 33
M  V30 39 1 11 34
M  V30 40 1 13 35
M  V30 41 1 14 36
M  V30 42 1 15 37
M  V30 43 1 16 38
M  V30 44 1 18 39
M  V30 45 1 22 40
M  V30 46 1 22 41
M  V30 47 1 24 42
M  V30 48 1 25 43
M  V30 49 1 26 44
M  V30 END BOND
M  V30 END CTAB
M  END
>  <Dataset>  (331) 
ChEMBL_Kinases

>  <Ligand_Instance>  (331) 
nan

>  <PDB_ID>  (331) 
nan

>  <Standardized_SMILES>  (331) 
O=C1C2C3c4ccccc4C(c4ccccc43)C2C(=O)N1Cc1ccco1

>  <Name>  (331) 
nan

>  <Pocket>  (331) 
nan

>  <ATP_Site>  (331) 
nan

>  <Peripheral>  (331) 
nan

>  <Num_H_Atoms_ProtBoundConf>  (331) 
nan

>  <Num_Resolved_Atoms>  (331) 
nan

>  <Num_Not_Resolved_Atoms>  (331) 
nan

$$$$
CHEMBL1452199
     RDKit          3D

  0  0  0  0  0  0  0  0  0  0999 V3000
M  V30 BEGIN CTAB
M  V30 COUNTS 49 52 0 0 0
M  V30 BEGIN ATOM
M  V30 1 C 0.636861 -3.130398 5.123311 0
M  V30 2 N 0.493040 -4.502877 4.684063 0
M  V30 3 C 1.720175 -4.878092 4.015112 0
M  V30 4 C 2.063401 -3.808854 3.030795 0
M  V30 5 N 0.807643 -3.377903 2.405042 0
M  V30 6 C 0.957362 -2.209917 1.568397 0
M  V30 7 N 2.158585 -1.622282 1.419041 0
M  V30 8 C 2.335073 -0.516136 0.635192 0
M  V30 9 C 1.248377 0.019219 -0.026847 0
M  V30 10 N 1.374137 1.112302 -0.813118 0
M  V30 11 C 0.303952 1.630909 -1.458585 0
M  V30 12 C 0.396199 2.810648 -2.317787 0
M  V30 13 C -0.548799 3.813156 -2.219111 0
M  V30 14 C -0.396268 4.899307 -3.064980 0
M  V30 15 C 0.614282 5.054136 -3.986434 0
M  V30 16 Cl 0.659456 6.506949 -4.989279 0
M  V30 17 C 1.550927 4.023461 -4.059622 0
M  V30 18 C 1.425702 2.927494 -3.229329 0
M  V30 19 C -0.900448 0.981159 -1.263584 0
M  V30 20 O -1.892586 1.454474 -1.856436 0
M  V30 21 N -1.092606 -0.110471 -0.494404 0
M  V30 22 C -2.318807 -0.781837 -0.288513 0
M  V30 23 C -3.162103 -0.337852 0.841587 0
M  V30 24 C -3.522184 1.070338 0.663713 0
M  V30 25 N -3.824115 2.180635 0.523224 0
M  V30 26 C 0.018989 -0.592565 0.133752 0
M  V30 27 N -0.096834 -1.680604 0.918711 0
M  V30 28 C -0.514066 -3.961505 2.521190 0
M  V30 29 C -0.663265 -4.682253 3.828943 0
M  V30 30 H 0.171563 -2.387992 4.474392 0
M  V30 31 H 1.717849 -2.871483 5.228520 0
M  V30 32 H 0.239814 -3.088119 6.171737 0
M  V30 33 H 2.512063 -4.878391 4.790692 0
M  V30 34 H 1.647401 -5.843632 3.464965 0
M  V30 35 H 2.640429 -2.966861 3.411934 0
M  V30 36 H 2.652003 -4.246528 2.184744 0
M  V30 37 H 3.327442 -0.050942 0.526989 0
M  V30 38 H -1.380500 3.767782 -1.515341 0
M  V30 39 H -1.130744 5.693612 -2.998321 0
M  V30 40 H 2.343241 4.143221 -4.781056 0
M  V30 41 H 2.177649 2.154145 -3.324053 0
M  V30 42 H -2.105917 -1.866860 -0.182290 0
M  V30 43 H -2.909866 -0.699622 -1.227530 0
M  V30 44 H -2.775497 -0.548665 1.841649 0
M  V30 45 H -4.119750 -0.903897 0.783649 0
M  V30 46 H -0.746640 -4.642245 1.680159 0
M  V30 47 H -1.236631 -3.094534 2.478884 0
M  V30 48 H -0.733456 -5.772396 3.629220 0
M  V30 49 H -1.529631 -4.294687 4.362615 0
M  V30 END ATOM
M  V30 BEGIN BOND
M  V30 1 1 1 2
M  V30 2 1 2 3
M  V30 3 1 3 4
M  V30 4 1 4 5
M  V30 5 1 5 6
M  V30 6 2 6 7
M  V30 7 1 7 8
M  V30 8 2 8 9
M  V30 9 1 9 10
M  V30 10 2 10 11
M  V30 11 1 11 12
M  V30 12 2 12 13
M  V30 13 1 13 14
M  V30 14 2 14 15
M  V30 15 1 15 16
M  V30 16 1 15 17
M  V30 17 2 17 18
M  V30 18 1 11 19
M  V30 19 2 19 20
M  V30 20 1 19 21
M  V30 21 1 21 22
M  V30 22 1 22 23
M  V30 23 1 23 24
M  V30 24 3 24 25
M  V30 25 1 21 26
M  V30 26 2 26 27
M  V30 27 1 5 28
M  V30 28 1 28 29
M  V30 29 1 29 2
M  V30 30 1 27 6
M  V30 31 1 26 9
M  V30 32 1 18 12
M  V30 33 1 1 30
M  V30 34 1 1 31
M  V30 35 1 1 32
M  V30 36 1 3 33
M  V30 37 1 3 34
M  V30 38 1 4 35
M  V30 39 1 4 36
M  V30 40 1 8 37
M  V30 41 1 13 38
M  V30 42 1 14 39
M  V30 43 1 17 40
M  V30 44 1 18 41
M  V30 45 1 22 42
M  V30 46 1 22 43
M  V30 47 1 23 44
M  V30 48 1 23 45
M  V30 49 1 28 46
M  V30 50 1 28 47
M  V30 51 1 29 48
M  V30 52 1 29 49
M  V30 END BOND
M  V30 END CTAB
M  END
>  <Dataset>  (332) 
ChEMBL_Kinases

>  <Ligand_Instance>  (332) 
nan

>  <PDB_ID>  (332) 
nan

>  <Standardized_SMILES>  (332) 
CN1CCN(c2ncc3nc(-c4ccc(Cl)cc4)c(=O)n(CCC#N)c3n2)CC1

>  <Name>  (332) 
nan

>  <Pocket>  (332) 
nan

>  <ATP_Site>  (332) 
nan

>  <Peripheral>  (332) 
nan

>  <Num_H_Atoms_ProtBoundConf>  (332) 
nan

>  <Num_Resolved_Atoms>  (332) 
nan

>  <Num_Not_Resolved_Atoms>  (332) 
nan

$$$$
CHEMBL1452403
     RDKit          3D

  0  0  0  0  0  0  0  0  0  0999 V3000
M  V30 BEGIN CTAB
M  V30 COUNTS 46 48 0 0 0
M  V30 BEGIN ATOM
M  V30 1 C -0.997072 -4.503057 1.995843 0
M  V30 2 C -0.227818 -4.466224 0.683048 0
M  V30 3 O -0.711093 -3.453996 -0.165573 0
M  V30 4 C -0.206229 -3.188901 -1.416592 0
M  V30 5 O 0.744404 -3.861491 -1.878404 0
M  V30 6 N -0.784827 -2.143998 -2.162648 0
M  V30 7 C -0.410397 -1.707596 -3.477991 0
M  V30 8 C -0.547796 -0.240038 -3.671453 0
M  V30 9 N -0.514776 0.529983 -2.464178 0
M  V30 10 C 0.749514 1.059150 -2.090929 0
M  V30 11 C 0.778244 1.846618 -0.854082 0
M  V30 12 N 1.013764 1.264518 0.335701 0
M  V30 13 C 0.994069 2.171709 1.327896 0
M  V30 14 C 1.216039 1.844831 2.731115 0
M  V30 15 C 1.726872 2.728984 3.655528 0
M  V30 16 C 1.918675 2.368230 4.978159 0
M  V30 17 C 1.596460 1.091186 5.408120 0
M  V30 18 C 1.747549 0.567602 6.786996 0
M  V30 19 C 1.077063 0.168795 4.501192 0
M  V30 20 C 0.906076 0.581727 3.193486 0
M  V30 21 N 0.737097 3.331508 0.696926 0
M  V30 22 O 0.614016 3.119604 -0.581126 0
M  V30 23 C -1.347739 0.052045 -1.418111 0
M  V30 24 C -1.871840 -1.346379 -1.680608 0
M  V30 25 H -1.113498 -5.538115 2.371661 0
M  V30 26 H -2.024301 -4.078055 1.823065 0
M  V30 27 H -0.499517 -3.897441 2.795406 0
M  V30 28 H -0.289307 -5.465390 0.210955 0
M  V30 29 H 0.838135 -4.276868 0.988060 0
M  V30 30 H 0.613387 -2.087367 -3.757419 0
M  V30 31 H -1.088500 -2.224663 -4.188298 0
M  V30 32 H 0.309361 0.086044 -4.314851 0
M  V30 33 H -1.466031 -0.004533 -4.211156 0
M  V30 34 H 1.083797 1.731193 -2.928533 0
M  V30 35 H 1.502883 0.236919 -2.078880 0
M  V30 36 H 1.980951 3.730118 3.324802 0
M  V30 37 H 2.313951 3.032451 5.721448 0
M  V30 38 H 0.921591 -0.142822 7.027675 0
M  V30 39 H 2.679172 -0.048185 6.804545 0
M  V30 40 H 1.726672 1.332713 7.566950 0
M  V30 41 H 0.802958 -0.846724 4.767164 0
M  V30 42 H 0.496024 -0.145600 2.476243 0
M  V30 43 H -0.904118 0.064271 -0.402628 0
M  V30 44 H -2.259356 0.706498 -1.370345 0
M  V30 45 H -2.244634 -1.778398 -0.748292 0
M  V30 46 H -2.691577 -1.247323 -2.421988 0
M  V30 END ATOM
M  V30 BEGIN BOND
M  V30 1 1 1 2
M  V30 2 1 2 3
M  V30 3 1 3 4
M  V30 4 2 4 5
M  V30 5 1 4 6
M  V30 6 1 6 7
M  V30 7 1 7 8
M  V30 8 1 8 9
M  V30 9 1 9 10
M  V30 10 1 10 11
M  V30 11 2 11 12
M  V30 12 1 12 13
M  V30 13 1 13 14
M  V30 14 2 14 15
M  V30 15 1 15 16
M  V30 16 2 16 17
M  V30 17 1 17 18
M  V30 18 1 17 19
M  V30 19 2 19 20
M  V30 20 2 13 21
M  V30 21 1 21 22
M  V30 22 1 9 23
M  V30 23 1 23 24
M  V30 24 1 24 6
M  V30 25 1 22 11
M  V30 26 1 20 14
M  V30 27 1 1 25
M  V30 28 1 1 26
M  V30 29 1 1 27
M  V30 30 1 2 28
M  V30 31 1 2 29
M  V30 32 1 7 30
M  V30 33 1 7 31
M  V30 34 1 8 32
M  V30 35 1 8 33
M  V30 36 1 10 34
M  V30 37 1 10 35
M  V30 38 1 15 36
M  V30 39 1 16 37
M  V30 40 1 18 38
M  V30 41 1 18 39
M  V30 42 1 18 40
M  V30 43 1 19 41
M  V30 44 1 20 42
M  V30 45 1 23 43
M  V30 46 1 23 44
M  V30 47 1 24 45
M  V30 48 1 24 46
M  V30 END BOND
M  V30 END CTAB
M  END
>  <Dataset>  (333) 
ChEMBL_Kinases

>  <Ligand_Instance>  (333) 
nan

>  <PDB_ID>  (333) 
nan

>  <Standardized_SMILES>  (333) 
CCOC(=O)N1CCN(Cc2nc(-c3ccc(C)cc3)no2)CC1

>  <Name>  (333) 
nan

>  <Pocket>  (333) 
nan

>  <ATP_Site>  (333) 
nan

>  <Peripheral>  (333) 
nan

>  <Num_H_Atoms_ProtBoundConf>  (333) 
nan

>  <Num_Resolved_Atoms>  (333) 
nan

>  <Num_Not_Resolved_Atoms>  (333) 
nan

$$$$
CHEMBL1453928
     RDKit          3D

  0  0  0  0  0  0  0  0  0  0999 V3000
M  V30 BEGIN CTAB
M  V30 COUNTS 35 37 0 0 0
M  V30 BEGIN ATOM
M  V30 1 C 1.752142 -2.567015 5.531097 0
M  V30 2 N 2.046571 -1.904871 4.276917 0
M  V30 3 C 1.099157 -1.994431 3.219855 0
M  V30 4 N -0.061105 -2.677304 3.355553 0
M  V30 5 C -0.958149 -2.756977 2.341977 0
M  V30 6 N -0.728060 -2.158014 1.158504 0
M  V30 7 C 0.393684 -1.469134 0.955764 0
M  V30 8 C 1.299306 -1.394479 1.993454 0
M  V30 9 N 2.319915 -0.661504 1.544067 0
M  V30 10 C 2.041597 -0.304731 0.277786 0
M  V30 11 N 0.838993 -0.796533 -0.120506 0
M  V30 12 C 0.247657 -0.598530 -1.413717 0 CFG=2
M  V30 13 O 0.823467 0.514597 -2.007027 0
M  V30 14 C -0.131098 1.498660 -2.091087 0 CFG=2
M  V30 15 C -0.120767 2.324143 -0.826045 0
M  V30 16 O -1.045186 3.343859 -0.806211 0
M  V30 17 C -1.399085 0.756175 -2.334655 0 CFG=1
M  V30 18 O -1.331419 0.278980 -3.662018 0
M  V30 19 C -1.238705 -0.418863 -1.392455 0 CFG=2
M  V30 20 O -1.722010 -0.034374 -0.134047 0
M  V30 21 H 2.124962 -3.607271 5.485048 0
M  V30 22 H 0.671206 -2.542586 5.772193 0
M  V30 23 H 2.292434 -2.074172 6.357244 0
M  V30 24 H 2.913619 -1.361924 4.094124 0
M  V30 25 H -1.840339 -3.331785 2.583815 0
M  V30 26 H 2.684610 0.296270 -0.352625 0
M  V30 27 H 0.505438 -1.497533 -2.020866 0
M  V30 28 H 0.101847 2.142919 -2.957151 0
M  V30 29 H -0.142714 1.675927 0.073245 0
M  V30 30 H 0.903020 2.800418 -0.800215 0
M  V30 31 H -1.474019 3.469844 0.078444 0
M  V30 32 H -2.314669 1.341724 -2.144401 0
M  V30 33 H -2.193527 -0.052512 -3.993234 0
M  V30 34 H -1.783335 -1.315044 -1.749146 0
M  V30 35 H -2.681275 0.204615 -0.264389 0
M  V30 END ATOM
M  V30 BEGIN BOND
M  V30 1 1 1 2
M  V30 2 1 2 3
M  V30 3 2 3 4
M  V30 4 1 4 5
M  V30 5 2 5 6
M  V30 6 1 6 7
M  V30 7 2 7 8
M  V30 8 1 8 9
M  V30 9 2 9 10
M  V30 10 1 10 11
M  V30 11 1 11 12
M  V30 12 1 12 13
M  V30 13 1 13 14
M  V30 14 1 14 15
M  V30 15 1 15 16
M  V30 16 1 14 17
M  V30 17 1 17 18
M  V30 18 1 17 19
M  V30 19 1 19 20
M  V30 20 1 8 3
M  V30 21 1 19 12
M  V30 22 1 11 7
M  V30 23 1 1 21
M  V30 24 1 1 22
M  V30 25 1 1 23
M  V30 26 1 2 24
M  V30 27 1 5 25
M  V30 28 1 10 26
M  V30 29 1 12 27 CFG=3
M  V30 30 1 14 28 CFG=3
M  V30 31 1 15 29
M  V30 32 1 15 30
M  V30 33 1 16 31
M  V30 34 1 17 32 CFG=3
M  V30 35 1 18 33
M  V30 36 1 19 34 CFG=3
M  V30 37 1 20 35
M  V30 END BOND
M  V30 END CTAB
M  END
>  <Dataset>  (334) 
ChEMBL_Kinases

>  <Ligand_Instance>  (334) 
nan

>  <PDB_ID>  (334) 
nan

>  <Standardized_SMILES>  (334) 
CNc1ncnc2c1ncn2[C@@H]1O[C@H](CO)[C@@H](O)[C@@H]1O

>  <Name>  (334) 
nan

>  <Pocket>  (334) 
nan

>  <ATP_Site>  (334) 
nan

>  <Peripheral>  (334) 
nan

>  <Num_H_Atoms_ProtBoundConf>  (334) 
nan

>  <Num_Resolved_Atoms>  (334) 
nan

>  <Num_Not_Resolved_Atoms>  (334) 
nan

$$$$
CHEMBL1452804
     RDKit          3D

  0  0  0  0  0  0  0  0  0  0999 V3000
M  V30 BEGIN CTAB
M  V30 COUNTS 62 64 0 0 0
M  V30 BEGIN ATOM
M  V30 1 C 4.389372 0.515099 5.445539 0
M  V30 2 C 3.070626 1.222971 5.483635 0
M  V30 3 O 2.211181 0.934953 4.426222 0
M  V30 4 C 2.462266 1.147663 3.101672 0
M  V30 5 C 3.620624 1.688150 2.587091 0
M  V30 6 C 3.776761 1.863568 1.218356 0
M  V30 7 C 2.761505 1.494962 0.335268 0
M  V30 8 O 2.995660 1.703277 -1.012137 0
M  V30 9 C 4.151427 2.240473 -1.568214 0
M  V30 10 C 5.410329 1.478733 -1.316556 0
M  V30 11 C 1.589955 0.946646 0.877772 0
M  V30 12 N 0.661252 0.628386 -0.159209 0
M  V30 13 C -0.247356 1.669774 -0.512194 0
M  V30 14 O -0.126870 2.760359 0.145998 0
M  V30 15 C -1.352008 1.820330 -1.500993 0
M  V30 16 S -1.628371 0.371614 -2.444996 0
M  V30 17 C -2.312291 -1.040260 -1.661895 0
M  V30 18 N -2.387005 -1.995066 -2.603916 0
M  V30 19 C -2.930314 -3.112185 -2.065885 0
M  V30 20 C -3.173138 -2.768971 -0.756902 0
M  V30 21 C -3.742255 -3.735955 0.037719 0
M  V30 22 O -3.989277 -3.494131 1.221304 0
M  V30 23 N -4.065545 -4.969845 -0.384310 0
M  V30 24 C -4.663562 -5.996361 0.441461 0
M  V30 25 C -3.814244 -5.274618 -1.670670 0
M  V30 26 O -4.057436 -6.388256 -2.223347 0
M  V30 27 N -3.263743 -4.371940 -2.484141 0
M  V30 28 C -2.940243 -4.574496 -3.896200 0
M  V30 29 N -2.797480 -1.504707 -0.502456 0
M  V30 30 C -2.858750 -0.725929 0.692103 0
M  V30 31 C -1.858150 -1.097346 1.758785 0
M  V30 32 C -4.263226 -0.593642 1.245105 0
M  V30 33 C 1.457411 0.782271 2.235773 0
M  V30 34 H 4.544865 -0.116522 4.549480 0
M  V30 35 H 5.205602 1.258469 5.490863 0
M  V30 36 H 4.491641 -0.196898 6.313228 0
M  V30 37 H 2.588031 1.003360 6.449622 0
M  V30 38 H 3.224152 2.335737 5.477387 0
M  V30 39 H 4.352356 1.945180 3.331697 0
M  V30 40 H 4.723741 2.294584 0.986366 0
M  V30 41 H 4.291603 3.304342 -1.267752 0
M  V30 42 H 3.994685 2.266287 -2.682334 0
M  V30 43 H 5.237302 0.620977 -0.630576 0
M  V30 44 H 6.174782 2.157859 -0.900572 0
M  V30 45 H 5.872700 1.098014 -2.273869 0
M  V30 46 H 0.435543 -0.206810 -0.781667 0
M  V30 47 H -1.126843 2.717298 -2.170730 0
M  V30 48 H -2.266097 2.133617 -0.916022 0
M  V30 49 H -5.291045 -6.676687 -0.178238 0
M  V30 50 H -3.812788 -6.634845 0.795958 0
M  V30 51 H -5.243862 -5.607986 1.292978 0
M  V30 52 H -3.425442 -5.471643 -4.304350 0
M  V30 53 H -3.311706 -3.698394 -4.501140 0
M  V30 54 H -1.854087 -4.649241 -4.079795 0
M  V30 55 H -2.583177 0.315875 0.449891 0
M  V30 56 H -0.870716 -1.180520 1.260415 0
M  V30 57 H -2.019425 -2.027875 2.283194 0
M  V30 58 H -1.792185 -0.219497 2.454951 0
M  V30 59 H -4.608005 0.458071 1.347961 0
M  V30 60 H -5.039897 -1.042563 0.572873 0
M  V30 61 H -4.298389 -0.980591 2.282359 0
M  V30 62 H 0.518377 0.352643 2.541747 0
M  V30 END ATOM
M  V30 BEGIN BOND
M  V30 1 1 1 2
M  V30 2 1 2 3
M  V30 3 1 3 4
M  V30 4 2 4 5
M  V30 5 1 5 6
M  V30 6 2 6 7
M  V30 7 1 7 8
M  V30 8 1 8 9
M  V30 9 1 9 10
M  V30 10 1 7 11
M  V30 11 1 11 12
M  V30 12 1 12 13
M  V30 13 2 13 14
M  V30 14 1 13 15
M  V30 15 1 15 16
M  V30 16 1 16 17
M  V30 17 2 17 18
M  V30 18 1 18 19
M  V30 19 2 19 20
M  V30 20 1 20 21
M  V30 21 2 21 22
M  V30 22 1 21 23
M  V30 23 1 23 24
M  V30 24 1 23 25
M  V30 25 2 25 26
M  V30 26 1 25 27
M  V30 27 1 27 28
M  V30 28 1 20 29
M  V30 29 1 29 30
M  V30 30 1 30 31
M  V30 31 1 30 32
M  V30 32 2 11 33
M  V30 33 1 33 4
M  V30 34 1 29 17
M  V30 35 1 27 19
M  V30 36 1 1 34
M  V30 37 1 1 35
M  V30 38 1 1 36
M  V30 39 1 2 37
M  V30 40 1 2 38
M  V30 41 1 5 39
M  V30 42 1 6 40
M  V30 43 1 9 41
M  V30 44 1 9 42
M  V30 45 1 10 43
M  V30 46 1 10 44
M  V30 47 1 10 45
M  V30 48 1 12 46
M  V30 49 1 15 47
M  V30 50 1 15 48
M  V30 51 1 24 49
M  V30 52 1 24 50
M  V30 53 1 24 51
M  V30 54 1 28 52
M  V30 55 1 28 53
M  V30 56 1 28 54
M  V30 57 1 30 55
M  V30 58 1 31 56
M  V30 59 1 31 57
M  V30 60 1 31 58
M  V30 61 1 32 59
M  V30 62 1 32 60
M  V30 63 1 32 61
M  V30 64 1 33 62
M  V30 END BOND
M  V30 END CTAB
M  END
>  <Dataset>  (335) 
ChEMBL_Kinases

>  <Ligand_Instance>  (335) 
nan

>  <PDB_ID>  (335) 
nan

>  <Standardized_SMILES>  (335) 
CCOc1ccc(OCC)c(NC(=O)CSc2nc3c(c(=O)n(C)c(=O)n3C)n2C(C)C)c1

>  <Name>  (335) 
nan

>  <Pocket>  (335) 
nan

>  <ATP_Site>  (335) 
nan

>  <Peripheral>  (335) 
nan

>  <Num_H_Atoms_ProtBoundConf>  (335) 
nan

>  <Num_Resolved_Atoms>  (335) 
nan

>  <Num_Not_Resolved_Atoms>  (335) 
nan

$$$$
CHEMBL1453130
     RDKit          3D

  0  0  0  0  0  0  0  0  0  0999 V3000
M  V30 BEGIN CTAB
M  V30 COUNTS 53 56 0 0 0
M  V30 BEGIN ATOM
M  V30 1 O 1.705074 -2.227368 2.421541 0
M  V30 2 C 1.332082 -1.754734 1.293257 0
M  V30 3 N 2.370447 -1.227190 0.477759 0
M  V30 4 C 3.750316 -1.201459 0.843916 0
M  V30 5 C 3.993970 -0.393491 2.124805 0
M  V30 6 C 3.543603 1.002173 1.909833 0
M  V30 7 C 4.514860 1.873321 1.403651 0
M  V30 8 C 4.300991 3.211106 1.133631 0
M  V30 9 C 3.041936 3.708015 1.384243 0
M  V30 10 C 2.071569 2.862573 1.883777 0
M  V30 11 C 2.301536 1.527781 2.148262 0
M  V30 12 O 0.911480 3.620125 2.039989 0
M  V30 13 C 1.077247 4.837337 1.302108 0
M  V30 14 O 2.489120 4.979581 1.231549 0
M  V30 15 C -0.091042 -1.751316 0.851676 0
M  V30 16 C -0.605176 -0.371886 0.588684 0
M  V30 17 C -1.722370 -0.293750 -0.398236 0
M  V30 18 N -1.706096 -1.252747 -1.433043 0
M  V30 19 S -3.210051 -1.912551 -1.839251 0
M  V30 20 O -3.015716 -2.857162 -3.015687 0
M  V30 21 O -4.076062 -0.790933 -2.387606 0
M  V30 22 C -4.010451 -2.777147 -0.572022 0
M  V30 23 C -4.894804 -2.205503 0.347178 0
M  V30 24 C -5.508980 -2.919922 1.335406 0
M  V30 25 C -5.283557 -4.273449 1.481296 0
M  V30 26 Cl -6.002690 -5.290970 2.695385 0
M  V30 27 C -4.410540 -4.919156 0.599523 0
M  V30 28 C -3.812496 -4.148889 -0.386252 0
M  V30 29 C -0.570977 -2.081500 -1.562886 0
M  V30 30 C -0.234347 -2.725114 -0.265276 0
M  V30 31 H 2.042874 -0.846773 -0.438775 0
M  V30 32 H 4.324451 -0.658886 0.064680 0
M  V30 33 H 4.214909 -2.197415 0.914946 0
M  V30 34 H 3.463814 -0.802171 2.994609 0
M  V30 35 H 5.073273 -0.420139 2.369009 0
M  V30 36 H 5.527916 1.523448 1.189522 0
M  V30 37 H 5.066771 3.843338 0.748117 0
M  V30 38 H 1.577896 0.851436 2.532701 0
M  V30 39 H 0.627006 4.730013 0.300693 0
M  V30 40 H 0.623972 5.636208 1.920023 0
M  V30 41 H -0.675158 -2.188653 1.715180 0
M  V30 42 H 0.227237 0.293557 0.259846 0
M  V30 43 H -0.972170 0.052923 1.548031 0
M  V30 44 H -1.730981 0.723491 -0.844669 0
M  V30 45 H -2.717173 -0.390250 0.126307 0
M  V30 46 H -5.073015 -1.142598 0.234043 0
M  V30 47 H -6.190420 -2.484124 2.045136 0
M  V30 48 H -4.170927 -5.974657 0.633942 0
M  V30 49 H -3.126521 -4.653211 -1.080144 0
M  V30 50 H -0.786503 -2.841473 -2.340177 0
M  V30 51 H 0.294105 -1.482971 -1.952705 0
M  V30 52 H 0.714662 -3.314325 -0.431991 0
M  V30 53 H -0.998827 -3.516526 -0.077930 0
M  V30 END ATOM
M  V30 BEGIN BOND
M  V30 1 2 1 2
M  V30 2 1 2 3
M  V30 3 1 3 4
M  V30 4 1 4 5
M  V30 5 1 5 6
M  V30 6 2 6 7
M  V30 7 1 7 8
M  V30 8 2 8 9
M  V30 9 1 9 10
M  V30 10 2 10 11
M  V30 11 1 10 12
M  V30 12 1 12 13
M  V30 13 1 13 14
M  V30 14 1 2 15
M  V30 15 1 15 16
M  V30 16 1 16 17
M  V30 17 1 17 18
M  V30 18 1 18 19
M  V30 19 2 19 20
M  V30 20 2 19 21
M  V30 21 1 19 22
M  V30 22 2 22 23
M  V30 23 1 23 24
M  V30 24 2 24 25
M  V30 25 1 25 26
M  V30 26 1 25 27
M  V30 27 2 27 28
M  V30 28 1 18 29
M  V30 29 1 29 30
M  V30 30 1 11 6
M  V30 31 1 30 15
M  V30 32 1 14 9
M  V30 33 1 28 22
M  V30 34 1 3 31
M  V30 35 1 4 32
M  V30 36 1 4 33
M  V30 37 1 5 34
M  V30 38 1 5 35
M  V30 39 1 7 36
M  V30 40 1 8 37
M  V30 41 1 11 38
M  V30 42 1 13 39
M  V30 43 1 13 40
M  V30 44 1 15 41
M  V30 45 1 16 42
M  V30 46 1 16 43
M  V30 47 1 17 44
M  V30 48 1 17 45
M  V30 49 1 23 46
M  V30 50 1 24 47
M  V30 51 1 27 48
M  V30 52 1 28 49
M  V30 53 1 29 50
M  V30 54 1 29 51
M  V30 55 1 30 52
M  V30 56 1 30 53
M  V30 END BOND
M  V30 END CTAB
M  END
>  <Dataset>  (336) 
ChEMBL_Kinases

>  <Ligand_Instance>  (336) 
nan

>  <PDB_ID>  (336) 
nan

>  <Standardized_SMILES>  (336) 
O=C(NCCc1ccc2c(c1)OCO2)C1CCN(S(=O)(=O)c2ccc(Cl)cc2)CC1

>  <Name>  (336) 
nan

>  <Pocket>  (336) 
nan

>  <ATP_Site>  (336) 
nan

>  <Peripheral>  (336) 
nan

>  <Num_H_Atoms_ProtBoundConf>  (336) 
nan

>  <Num_Resolved_Atoms>  (336) 
nan

>  <Num_Not_Resolved_Atoms>  (336) 
nan

$$$$
CHEMBL1453432
     RDKit          3D

  0  0  0  0  0  0  0  0  0  0999 V3000
M  V30 BEGIN CTAB
M  V30 COUNTS 62 64 0 0 0
M  V30 BEGIN ATOM
M  V30 1 C 5.513773 -0.792088 5.835437 0
M  V30 2 C 4.099860 -1.273746 5.862621 0
M  V30 3 O 3.345631 -0.896413 4.723255 0
M  V30 4 C 3.164010 0.445417 4.418713 0
M  V30 5 O 3.635572 1.397639 5.102387 0
M  V30 6 N 2.404146 0.794359 3.271481 0
M  V30 7 C 2.151346 2.138730 2.860469 0
M  V30 8 C 2.474774 2.385004 1.379695 0
M  V30 9 N 1.929402 1.311603 0.590326 0
M  V30 10 C 1.021077 1.411012 -0.491336 0
M  V30 11 O 1.103811 2.639779 -0.236725 0
M  V30 12 C 0.083034 1.342054 -1.629974 0
M  V30 13 C 0.556499 2.200624 -2.770104 0
M  V30 14 N -0.080225 -0.044388 -2.109313 0
M  V30 15 C -1.383632 -0.605149 -2.049253 0
M  V30 16 C -1.937174 -1.303156 -0.997409 0
M  V30 17 C -3.227770 -1.776343 -1.111225 0
M  V30 18 C -4.022261 -1.599797 -2.221303 0
M  V30 19 O -5.315387 -2.117449 -2.238366 0
M  V30 20 C -5.732472 -2.799919 -1.096564 0
M  V30 21 C -6.368192 -2.249754 0.011579 0
M  V30 22 C -6.722793 -3.044459 1.067889 0
M  V30 23 C -6.484178 -4.401992 1.109598 0
M  V30 24 C -5.847021 -4.948636 -0.003090 0
M  V30 25 C -5.474741 -4.172380 -1.088693 0
M  V30 26 C -3.463829 -0.903456 -3.265074 0
M  V30 27 C -2.161327 -0.417589 -3.168745 0
M  V30 28 S 1.134776 -1.090621 -2.749036 0
M  V30 29 C 1.355643 -2.558956 -1.779901 0
M  V30 30 O 0.860902 -1.454084 -4.185220 0
M  V30 31 O 2.471854 -0.365439 -2.817999 0
M  V30 32 C 2.428847 0.023047 1.031627 0
M  V30 33 C 1.818778 -0.218231 2.418334 0
M  V30 34 H 5.659348 0.062199 5.157734 0
M  V30 35 H 5.832877 -0.456897 6.858834 0
M  V30 36 H 6.186714 -1.592979 5.509690 0
M  V30 37 H 4.094225 -2.383585 5.903821 0
M  V30 38 H 3.577479 -0.921239 6.784149 0
M  V30 39 H 2.772421 2.862096 3.413651 0
M  V30 40 H 1.106868 2.420900 3.032763 0
M  V30 41 H 2.116101 3.380710 1.123530 0
M  V30 42 H 3.601209 2.343487 1.342304 0
M  V30 43 H -0.888717 1.744558 -1.281497 0
M  V30 44 H 0.039153 3.161353 -2.762971 0
M  V30 45 H 0.372806 1.674241 -3.722252 0
M  V30 46 H 1.644068 2.389524 -2.600736 0
M  V30 47 H -1.315730 -1.436505 -0.135744 0
M  V30 48 H -3.563234 -2.310036 -0.227721 0
M  V30 49 H -6.542388 -1.183986 -0.048549 0
M  V30 50 H -7.223408 -2.587415 1.931226 0
M  V30 51 H -6.771711 -5.018224 1.955017 0
M  V30 52 H -5.652955 -6.023634 0.018828 0
M  V30 53 H -4.988545 -4.658667 -1.909682 0
M  V30 54 H -4.086434 -0.760000 -4.146231 0
M  V30 55 H -1.829701 0.113053 -4.049161 0
M  V30 56 H 2.355545 -2.557388 -1.261037 0
M  V30 57 H 0.523446 -2.652528 -1.058535 0
M  V30 58 H 1.339070 -3.459618 -2.461659 0
M  V30 59 H 3.545112 0.080727 1.186343 0
M  V30 60 H 2.183640 -0.789787 0.350880 0
M  V30 61 H 2.060335 -1.226782 2.752242 0
M  V30 62 H 0.718492 -0.091044 2.354390 0
M  V30 END ATOM
M  V30 BEGIN BOND
M  V30 1 1 1 2
M  V30 2 1 2 3
M  V30 3 1 3 4
M  V30 4 2 4 5
M  V30 5 1 4 6
M  V30 6 1 6 7
M  V30 7 1 7 8
M  V30 8 1 8 9
M  V30 9 1 9 10
M  V30 10 2 10 11
M  V30 11 1 10 12
M  V30 12 1 12 13
M  V30 13 1 12 14
M  V30 14 1 14 15
M  V30 15 2 15 16
M  V30 16 1 16 17
M  V30 17 2 17 18
M  V30 18 1 18 19
M  V30 19 1 19 20
M  V30 20 2 20 21
M  V30 21 1 21 22
M  V30 22 2 22 23
M  V30 23 1 23 24
M  V30 24 2 24 25
M  V30 25 1 18 26
M  V30 26 2 26 27
M  V30 27 1 14 28
M  V30 28 1 28 29
M  V30 29 2 28 30
M  V30 30 2 28 31
M  V30 31 1 9 32
M  V30 32 1 32 33
M  V30 33 1 33 6
M  V30 34 1 27 15
M  V30 35 1 25 20
M  V30 36 1 1 34
M  V30 37 1 1 35
M  V30 38 1 1 36
M  V30 39 1 2 37
M  V30 40 1 2 38
M  V30 41 1 7 39
M  V30 42 1 7 40
M  V30 43 1 8 41
M  V30 44 1 8 42
M  V30 45 1 12 43
M  V30 46 1 13 44
M  V30 47 1 13 45
M  V30 48 1 13 46
M  V30 49 1 16 47
M  V30 50 1 17 48
M  V30 51 1 21 49
M  V30 52 1 22 50
M  V30 53 1 23 51
M  V30 54 1 24 52
M  V30 55 1 25 53
M  V30 56 1 26 54
M  V30 57 1 27 55
M  V30 58 1 29 56
M  V30 59 1 29 57
M  V30 60 1 29 58
M  V30 61 1 32 59
M  V30 62 1 32 60
M  V30 63 1 33 61
M  V30 64 1 33 62
M  V30 END BOND
M  V30 END CTAB
M  END
>  <Dataset>  (337) 
ChEMBL_Kinases

>  <Ligand_Instance>  (337) 
nan

>  <PDB_ID>  (337) 
nan

>  <Standardized_SMILES>  (337) 
CCOC(=O)N1CCN(C(=O)C(C)N(c2ccc(Oc3ccccc3)cc2)S(C)(=O)=O)CC1

>  <Name>  (337) 
nan

>  <Pocket>  (337) 
nan

>  <ATP_Site>  (337) 
nan

>  <Peripheral>  (337) 
nan

>  <Num_H_Atoms_ProtBoundConf>  (337) 
nan

>  <Num_Resolved_Atoms>  (337) 
nan

>  <Num_Not_Resolved_Atoms>  (337) 
nan

$$$$
CHEMBL1453446
     RDKit          3D

  0  0  0  0  0  0  0  0  0  0999 V3000
M  V30 BEGIN CTAB
M  V30 COUNTS 53 57 0 0 0
M  V30 BEGIN ATOM
M  V30 1 N 0.454040 -6.466393 -1.148565 0
M  V30 2 C 0.243877 -5.389040 -0.728310 0
M  V30 3 C -0.008059 -4.060665 -0.236773 0
M  V30 4 C -0.492967 -3.837817 1.039824 0
M  V30 5 C -0.728020 -2.528451 1.491238 0
M  V30 6 C -0.465389 -1.446479 0.637583 0
M  V30 7 N -0.745438 -0.218483 1.239588 0
M  V30 8 C -1.757712 0.820723 1.112949 0
M  V30 9 C -1.225268 2.096429 1.729235 0
M  V30 10 N 0.145851 2.284703 1.492777 0
M  V30 11 C 0.625419 3.503662 0.990156 0
M  V30 12 C 2.146765 3.395040 0.847575 0
M  V30 13 O 2.706768 4.576764 0.345572 0
M  V30 14 C 1.057591 1.287147 1.893362 0
M  V30 15 C 0.213120 0.062422 2.290825 0
M  V30 16 N 0.000586 -1.738755 -0.577737 0
M  V30 17 C 0.228749 -2.982249 -1.023397 0
M  V30 18 N 0.686160 -2.937121 -2.288384 0
M  V30 19 C 0.746607 -1.645604 -2.643352 0
M  V30 20 C 1.144410 -1.062609 -3.828305 0
M  V30 21 C 1.117741 0.309616 -3.958809 0
M  V30 22 C 0.686655 1.057743 -2.879731 0
M  V30 23 C 0.299839 0.429456 -1.718248 0
M  V30 24 C 0.315549 -0.929985 -1.561134 0
M  V30 25 C -1.253006 -2.554761 2.884903 0
M  V30 26 C -2.417851 -3.510689 2.987463 0
M  V30 27 C -2.111259 -4.881913 2.494957 0
M  V30 28 C -0.740466 -5.012426 1.892432 0
M  V30 29 H -2.114590 0.962500 0.088345 0
M  V30 30 H -2.617359 0.508862 1.747258 0
M  V30 31 H -1.769759 2.919893 1.166089 0
M  V30 32 H -1.577227 2.234500 2.777894 0
M  V30 33 H 0.247149 3.645417 -0.050579 0
M  V30 34 H 0.348190 4.425758 1.525987 0
M  V30 35 H 2.577413 3.114061 1.809575 0
M  V30 36 H 2.365375 2.612828 0.060021 0
M  V30 37 H 3.611077 4.299970 -0.021868 0
M  V30 38 H 1.682215 0.969639 1.045929 0
M  V30 39 H 1.741137 1.548339 2.732628 0
M  V30 40 H 0.815862 -0.782229 2.617566 0
M  V30 41 H -0.395962 0.466550 3.161592 0
M  V30 42 H 1.469126 -1.704064 -4.635546 0
M  V30 43 H 1.432931 0.736820 -4.897837 0
M  V30 44 H 0.701687 2.121298 -3.081039 0
M  V30 45 H 0.006674 1.165193 -1.001195 0
M  V30 46 H -0.431827 -2.905711 3.562364 0
M  V30 47 H -1.590013 -1.575754 3.229660 0
M  V30 48 H -3.244645 -3.091241 2.342579 0
M  V30 49 H -2.771070 -3.482699 4.030308 0
M  V30 50 H -2.224375 -5.583298 3.371280 0
M  V30 51 H -2.841302 -5.238798 1.716975 0
M  V30 52 H -0.733362 -5.918999 1.279173 0
M  V30 53 H 0.024429 -5.083081 2.712754 0
M  V30 END ATOM
M  V30 BEGIN BOND
M  V30 1 3 1 2
M  V30 2 1 2 3
M  V30 3 2 3 4
M  V30 4 1 4 5
M  V30 5 2 5 6
M  V30 6 1 6 7
M  V30 7 1 7 8
M  V30 8 1 8 9
M  V30 9 1 9 10
M  V30 10 1 10 11
M  V30 11 1 11 12
M  V30 12 1 12 13
M  V30 13 1 10 14
M  V30 14 1 14 15
M  V30 15 1 6 16
M  V30 16 1 16 17
M  V30 17 2 17 18
M  V30 18 1 18 19
M  V30 19 2 19 20
M  V30 20 1 20 21
M  V30 21 2 21 22
M  V30 22 1 22 23
M  V30 23 2 23 24
M  V30 24 1 5 25
M  V30 25 1 25 26
M  V30 26 1 26 27
M  V30 27 1 27 28
M  V30 28 1 17 3
M  V30 29 1 24 19
M  V30 30 1 28 4
M  V30 31 1 15 7
M  V30 32 1 24 16
M  V30 33 1 8 29
M  V30 34 1 8 30
M  V30 35 1 9 31
M  V30 36 1 9 32
M  V30 37 1 11 33
M  V30 38 1 11 34
M  V30 39 1 12 35
M  V30 40 1 12 36
M  V30 41 1 13 37
M  V30 42 1 14 38
M  V30 43 1 14 39
M  V30 44 1 15 40
M  V30 45 1 15 41
M  V30 46 1 20 42
M  V30 47 1 21 43
M  V30 48 1 22 44
M  V30 49 1 23 45
M  V30 50 1 25 46
M  V30 51 1 25 47
M  V30 52 1 26 48
M  V30 53 1 26 49
M  V30 54 1 27 50
M  V30 55 1 27 51
M  V30 56 1 28 52
M  V30 57 1 28 53
M  V30 END BOND
M  V30 END CTAB
M  END
>  <Dataset>  (338) 
ChEMBL_Kinases

>  <Ligand_Instance>  (338) 
nan

>  <PDB_ID>  (338) 
nan

>  <Standardized_SMILES>  (338) 
N#Cc1c2c(c(N3CCN(CCO)CC3)n3c1nc1ccccc13)CCCC2

>  <Name>  (338) 
nan

>  <Pocket>  (338) 
nan

>  <ATP_Site>  (338) 
nan

>  <Peripheral>  (338) 
nan

>  <Num_H_Atoms_ProtBoundConf>  (338) 
nan

>  <Num_Resolved_Atoms>  (338) 
nan

>  <Num_Not_Resolved_Atoms>  (338) 
nan

$$$$
CHEMBL1453475
     RDKit          3D

  0  0  0  0  0  0  0  0  0  0999 V3000
M  V30 BEGIN CTAB
M  V30 COUNTS 59 62 0 0 0
M  V30 BEGIN ATOM
M  V30 1 C 3.684489 0.731673 4.994214 0
M  V30 2 C 4.712847 -0.224541 4.502309 0
M  V30 3 N 5.483134 0.192626 3.410788 0
M  V30 4 C 6.765148 0.732093 3.638191 0
M  V30 5 C 7.749120 -0.429696 3.821569 0
M  V30 6 S 5.009947 -0.124913 1.852645 0
M  V30 7 O 6.077193 0.407787 0.911742 0
M  V30 8 O 5.051788 -1.631294 1.644446 0
M  V30 9 C 3.509997 0.548849 1.324880 0
M  V30 10 C 2.388423 -0.263727 1.535024 0
M  V30 11 C 1.132026 0.169226 1.151762 0
M  V30 12 C 0.969677 1.405757 0.558263 0
M  V30 13 C -0.366230 1.843681 0.161876 0
M  V30 14 N -0.695091 3.006268 -0.432920 0
M  V30 15 N -2.014226 3.069753 -0.651267 0
M  V30 16 C -2.501446 1.896371 -0.167846 0
M  V30 17 S -4.257099 1.536548 -0.249015 0
M  V30 18 C -4.562401 -0.095411 0.481615 0
M  V30 19 C -3.958459 -1.198664 -0.303343 0
M  V30 20 O -2.752508 -1.431087 0.045911 0
M  V30 21 N -4.546117 -1.971583 -1.333993 0
M  V30 22 C -3.845609 -3.007582 -2.002807 0
M  V30 23 C -2.481370 -3.263704 -2.164844 0
M  V30 24 C -2.052382 -4.367227 -2.875686 0
M  V30 25 C -3.006552 -5.217971 -3.426683 0
M  V30 26 C -4.367906 -4.969683 -3.269820 0
M  V30 27 C -4.809378 -3.860447 -2.555300 0
M  V30 28 C -6.165730 -3.347476 -2.228366 0
M  V30 29 C -5.878256 -1.893203 -1.893284 0
M  V30 30 C -5.943923 -1.086950 -3.165231 0
M  V30 31 O -1.493188 1.187436 0.310299 0
M  V30 32 C 2.058306 2.228953 0.338502 0
M  V30 33 C 3.300727 1.774356 0.729831 0
M  V30 34 H 3.827450 0.906800 6.077292 0
M  V30 35 H 3.808746 1.701312 4.458416 0
M  V30 36 H 2.672558 0.291626 4.781391 0
M  V30 37 H 4.247425 -1.217960 4.237692 0
M  V30 38 H 5.407994 -0.481932 5.344727 0
M  V30 39 H 6.867572 1.359162 4.526032 0
M  V30 40 H 7.092638 1.243077 2.705531 0
M  V30 41 H 7.307859 -1.190779 4.505187 0
M  V30 42 H 7.943194 -0.938751 2.871078 0
M  V30 43 H 8.669858 -0.085997 4.317569 0
M  V30 44 H 2.445338 -1.243719 1.994277 0
M  V30 45 H 0.241818 -0.435191 1.299613 0
M  V30 46 H -5.658860 -0.260733 0.508840 0
M  V30 47 H -4.222442 -0.122779 1.549621 0
M  V30 48 H -1.737150 -2.610730 -1.742706 0
M  V30 49 H -0.996823 -4.552281 -2.992780 0
M  V30 50 H -2.653158 -6.094831 -3.991415 0
M  V30 51 H -5.052400 -5.672741 -3.724562 0
M  V30 52 H -6.860397 -3.447714 -3.096939 0
M  V30 53 H -6.552874 -3.839847 -1.311066 0
M  V30 54 H -6.559742 -1.505777 -1.118710 0
M  V30 55 H -6.021829 -0.025672 -2.885784 0
M  V30 56 H -6.869117 -1.412514 -3.687080 0
M  V30 57 H -5.056191 -1.282333 -3.781772 0
M  V30 58 H 1.987247 3.194598 -0.116983 0
M  V30 59 H 4.195203 2.364554 0.588614 0
M  V30 END ATOM
M  V30 BEGIN BOND
M  V30 1 1 1 2
M  V30 2 1 2 3
M  V30 3 1 3 4
M  V30 4 1 4 5
M  V30 5 1 3 6
M  V30 6 2 6 7
M  V30 7 2 6 8
M  V30 8 1 6 9
M  V30 9 2 9 10
M  V30 10 1 10 11
M  V30 11 2 11 12
M  V30 12 1 12 13
M  V30 13 2 13 14
M  V30 14 1 14 15
M  V30 15 2 15 16
M  V30 16 1 16 17
M  V30 17 1 17 18
M  V30 18 1 18 19
M  V30 19 2 19 20
M  V30 20 1 19 21
M  V30 21 1 21 22
M  V30 22 2 22 23
M  V30 23 1 23 24
M  V30 24 2 24 25
M  V30 25 1 25 26
M  V30 26 2 26 27
M  V30 27 1 27 28
M  V30 28 1 28 29
M  V30 29 1 29 30
M  V30 30 1 16 31
M  V30 31 1 12 32
M  V30 32 2 32 33
M  V30 33 1 33 9
M  V30 34 1 31 13
M  V30 35 1 29 21
M  V30 36 1 27 22
M  V30 37 1 1 34
M  V30 38 1 1 35
M  V30 39 1 1 36
M  V30 40 1 2 37
M  V30 41 1 2 38
M  V30 42 1 4 39
M  V30 43 1 4 40
M  V30 44 1 5 41
M  V30 45 1 5 42
M  V30 46 1 5 43
M  V30 47 1 10 44
M  V30 48 1 11 45
M  V30 49 1 18 46
M  V30 50 1 18 47
M  V30 51 1 23 48
M  V30 52 1 24 49
M  V30 53 1 25 50
M  V30 54 1 26 51
M  V30 55 1 28 52
M  V30 56 1 28 53
M  V30 57 1 29 54
M  V30 58 1 30 55
M  V30 59 1 30 56
M  V30 60 1 30 57
M  V30 61 1 32 58
M  V30 62 1 33 59
M  V30 END BOND
M  V30 END CTAB
M  END
>  <Dataset>  (339) 
ChEMBL_Kinases

>  <Ligand_Instance>  (339) 
nan

>  <PDB_ID>  (339) 
nan

>  <Standardized_SMILES>  (339) 
CCN(CC)S(=O)(=O)c1ccc(-c2nnc(SCC(=O)N3c4ccccc4CC3C)o2)cc1

>  <Name>  (339) 
nan

>  <Pocket>  (339) 
nan

>  <ATP_Site>  (339) 
nan

>  <Peripheral>  (339) 
nan

>  <Num_H_Atoms_ProtBoundConf>  (339) 
nan

>  <Num_Resolved_Atoms>  (339) 
nan

>  <Num_Not_Resolved_Atoms>  (339) 
nan

$$$$
CHEMBL1453495
     RDKit          3D

  0  0  0  0  0  0  0  0  0  0999 V3000
M  V30 BEGIN CTAB
M  V30 COUNTS 67 69 0 0 0
M  V30 BEGIN ATOM
M  V30 1 C 2.218649 0.760492 6.682004 0
M  V30 2 O 3.010613 0.395039 5.594562 0
M  V30 3 C 2.870889 1.291179 4.534460 0
M  V30 4 C 1.472006 1.374901 4.022427 0
M  V30 5 N 0.933589 0.135005 3.520233 0
M  V30 6 C 1.111706 -0.145307 2.140485 0
M  V30 7 O 0.862790 -1.011272 1.271641 0
M  V30 8 C 1.797242 0.728734 1.165555 0
M  V30 9 C 1.811422 0.158604 -0.226576 0
M  V30 10 C 2.517568 1.130262 -1.105875 0
M  V30 11 O 3.732088 1.432072 -0.925834 0
M  V30 12 N 1.801926 1.749130 -2.196214 0
M  V30 13 C 0.355397 1.645565 -2.406624 0
M  V30 14 C -0.206044 1.152863 -1.063285 0
M  V30 15 N 0.505424 -0.024906 -0.756404 0
M  V30 16 C 0.312074 -1.169523 -1.559178 0
M  V30 17 C -0.997069 -1.834128 -1.481616 0
M  V30 18 C -2.196639 -1.114929 -1.851651 0
M  V30 19 C -3.295438 -0.969133 -0.993629 0
M  V30 20 C -4.475332 -0.310341 -1.291297 0
M  V30 21 C -4.563340 0.250254 -2.554683 0
M  V30 22 C -3.515898 0.140756 -3.444017 0
M  V30 23 C -2.360881 -0.531017 -3.087658 0
M  V30 24 C -1.012473 -3.151278 -2.216048 0
M  V30 25 C -0.438627 -3.245783 -3.471277 0
M  V30 26 C -0.420731 -4.432279 -4.197983 0
M  V30 27 C -0.991930 -5.561811 -3.659632 0
M  V30 28 C -1.565676 -5.475319 -2.409420 0
M  V30 29 C -1.579487 -4.295237 -1.694830 0
M  V30 30 C 0.210813 -1.022783 3.947998 0
M  V30 31 C -1.164348 -0.766135 4.467416 0
M  V30 32 C 1.005790 -1.924763 4.888314 0
M  V30 33 H 2.411594 -0.024484 7.458013 0
M  V30 34 H 2.540185 1.709971 7.155221 0
M  V30 35 H 1.139719 0.708517 6.444970 0
M  V30 36 H 3.221647 2.268357 4.930085 0
M  V30 37 H 3.598434 0.992414 3.770950 0
M  V30 38 H 1.494000 2.136965 3.187105 0
M  V30 39 H 0.817748 1.842260 4.785042 0
M  V30 40 H 1.308307 1.715880 1.196764 0
M  V30 41 H 2.854896 0.846809 1.509336 0
M  V30 42 H 2.346501 -0.815349 -0.274408 0
M  V30 43 H 2.396872 2.311379 -2.873837 0
M  V30 44 H -0.092775 2.626377 -2.581969 0
M  V30 45 H 0.111892 0.986058 -3.239828 0
M  V30 46 H 0.097366 1.955785 -0.350019 0
M  V30 47 H -1.278469 1.098646 -1.017542 0
M  V30 48 H 0.614567 -0.904475 -2.621587 0
M  V30 49 H 1.082768 -1.918563 -1.278720 0
M  V30 50 H -1.123298 -2.150020 -0.391319 0
M  V30 51 H -3.169669 -1.430787 -0.013201 0
M  V30 52 H -5.218998 -0.287754 -0.527479 0
M  V30 53 H -5.510051 0.757773 -2.742988 0
M  V30 54 H -3.656999 0.607579 -4.420766 0
M  V30 55 H -1.596371 -0.568476 -3.847192 0
M  V30 56 H 0.017373 -2.372848 -3.918702 0
M  V30 57 H 0.033497 -4.495957 -5.185067 0
M  V30 58 H -1.013652 -6.519664 -4.170988 0
M  V30 59 H -2.007684 -6.351013 -1.993487 0
M  V30 60 H -2.030861 -4.202119 -0.697100 0
M  V30 61 H 0.081511 -1.658842 3.019793 0
M  V30 62 H -1.942149 -0.763188 3.650661 0
M  V30 63 H -1.296006 0.211130 4.975916 0
M  V30 64 H -1.498152 -1.542714 5.188071 0
M  V30 65 H 0.637840 -2.988842 4.786782 0
M  V30 66 H 2.066852 -1.976829 4.602421 0
M  V30 67 H 0.826258 -1.663105 5.948479 0
M  V30 END ATOM
M  V30 BEGIN BOND
M  V30 1 1 1 2
M  V30 2 1 2 3
M  V30 3 1 3 4
M  V30 4 1 4 5
M  V30 5 1 5 6
M  V30 6 2 6 7
M  V30 7 1 6 8
M  V30 8 1 8 9
M  V30 9 1 9 10
M  V30 10 2 10 11
M  V30 11 1 10 12
M  V30 12 1 12 13
M  V30 13 1 13 14
M  V30 14 1 14 15
M  V30 15 1 15 16
M  V30 16 1 16 17
M  V30 17 1 17 18
M  V30 18 2 18 19
M  V30 19 1 19 20
M  V30 20 2 20 21
M  V30 21 1 21 22
M  V30 22 2 22 23
M  V30 23 1 17 24
M  V30 24 2 24 25
M  V30 25 1 25 26
M  V30 26 2 26 27
M  V30 27 1 27 28
M  V30 28 2 28 29
M  V30 29 1 5 30
M  V30 30 1 30 31
M  V30 31 1 30 32
M  V30 32 1 15 9
M  V30 33 1 23 18
M  V30 34 1 29 24
M  V30 35 1 1 33
M  V30 36 1 1 34
M  V30 37 1 1 35
M  V30 38 1 3 36
M  V30 39 1 3 37
M  V30 40 1 4 38
M  V30 41 1 4 39
M  V30 42 1 8 40
M  V30 43 1 8 41
M  V30 44 1 9 42
M  V30 45 1 12 43
M  V30 46 1 13 44
M  V30 47 1 13 45
M  V30 48 1 14 46
M  V30 49 1 14 47
M  V30 50 1 16 48
M  V30 51 1 16 49
M  V30 52 1 17 50
M  V30 53 1 19 51
M  V30 54 1 20 52
M  V30 55 1 21 53
M  V30 56 1 22 54
M  V30 57 1 23 55
M  V30 58 1 25 56
M  V30 59 1 26 57
M  V30 60 1 27 58
M  V30 61 1 28 59
M  V30 62 1 29 60
M  V30 63 1 30 61
M  V30 64 1 31 62
M  V30 65 1 31 63
M  V30 66 1 31 64
M  V30 67 1 32 65
M  V30 68 1 32 66
M  V30 69 1 32 67
M  V30 END BOND
M  V30 END CTAB
M  END
>  <Dataset>  (340) 
ChEMBL_Kinases

>  <Ligand_Instance>  (340) 
nan

>  <PDB_ID>  (340) 
nan

>  <Standardized_SMILES>  (340) 
COCCN(C(=O)CC1C(=O)NCCN1CC(c1ccccc1)c1ccccc1)C(C)C

>  <Name>  (340) 
nan

>  <Pocket>  (340) 
nan

>  <ATP_Site>  (340) 
nan

>  <Peripheral>  (340) 
nan

>  <Num_H_Atoms_ProtBoundConf>  (340) 
nan

>  <Num_Resolved_Atoms>  (340) 
nan

>  <Num_Not_Resolved_Atoms>  (340) 
nan

$$$$
CHEMBL1453700
     RDKit          3D

  0  0  0  0  0  0  0  0  0  0999 V3000
M  V30 BEGIN CTAB
M  V30 COUNTS 38 40 0 0 0
M  V30 BEGIN ATOM
M  V30 1 C -2.391294 -3.403220 4.172828 0
M  V30 2 C -1.287425 -3.242138 3.164319 0
M  V30 3 C -1.258579 -4.102410 2.078017 0
M  V30 4 C -0.228070 -3.917841 1.175189 0
M  V30 5 C 0.750805 -2.932316 1.310217 0
M  V30 6 N 1.814747 -2.724856 0.407222 0
M  V30 7 N 1.098012 -1.895294 -0.452596 0
M  V30 8 C 1.325309 -0.647107 -0.644805 0
M  V30 9 C 0.398484 -0.162462 -1.574680 0
M  V30 10 C -0.285760 -1.172746 -2.451080 0
M  V30 11 N 0.032172 1.137233 -1.788016 0
M  V30 12 C 0.305990 2.211662 -0.999058 0
M  V30 13 C -0.585414 3.280398 -1.087865 0
M  V30 14 C -0.354512 4.395714 -0.309229 0
M  V30 15 C 0.721470 4.490799 0.549462 0
M  V30 16 C 1.632053 3.437054 0.661223 0
M  V30 17 C 1.389658 2.309814 -0.131779 0
M  V30 18 N 2.371000 1.411034 0.122504 0
M  V30 19 C 2.326526 0.063437 -0.017703 0
M  V30 20 O 3.205243 -0.693290 0.415541 0
M  V30 21 C 0.655077 -2.115366 2.416452 0
M  V30 22 C -0.359099 -2.244120 3.370153 0
M  V30 23 H -3.320916 -3.072909 3.642494 0
M  V30 24 H -2.512503 -4.469834 4.378073 0
M  V30 25 H -2.216908 -2.763094 5.042141 0
M  V30 26 H -1.996814 -4.876030 1.937086 0
M  V30 27 H -0.155570 -4.548738 0.323089 0
M  V30 28 H 2.634633 -3.259381 0.762099 0
M  V30 29 H -0.292598 -2.174551 -1.948280 0
M  V30 30 H -1.356915 -0.915314 -2.609098 0
M  V30 31 H 0.238241 -1.273617 -3.411813 0
M  V30 32 H -1.407574 3.145902 -1.777368 0
M  V30 33 H -1.048931 5.214213 -0.384428 0
M  V30 34 H 0.863225 5.391947 1.145531 0
M  V30 35 H 2.485341 3.480000 1.324542 0
M  V30 36 H 3.299115 1.733843 0.471319 0
M  V30 37 H 1.377608 -1.335948 2.582332 0
M  V30 38 H -0.391106 -1.581602 4.218147 0
M  V30 END ATOM
M  V30 BEGIN BOND
M  V30 1 1 1 2
M  V30 2 2 2 3
M  V30 3 1 3 4
M  V30 4 2 4 5
M  V30 5 1 5 6
M  V30 6 1 6 7
M  V30 7 2 7 8 CFG=2
M  V30 8 1 8 9
M  V30 9 1 9 10
M  V30 10 2 9 11
M  V30 11 1 11 12
M  V30 12 2 12 13
M  V30 13 1 13 14
M  V30 14 2 14 15
M  V30 15 1 15 16
M  V30 16 2 16 17
M  V30 17 1 17 18
M  V30 18 1 18 19
M  V30 19 2 19 20
M  V30 20 1 5 21
M  V30 21 2 21 22
M  V30 22 1 22 2
M  V30 23 1 19 8
M  V30 24 1 17 12
M  V30 25 1 1 23
M  V30 26 1 1 24
M  V30 27 1 1 25
M  V30 28 1 3 26
M  V30 29 1 4 27
M  V30 30 1 6 28
M  V30 31 1 10 29
M  V30 32 1 10 30
M  V30 33 1 10 31
M  V30 34 1 13 32
M  V30 35 1 14 33
M  V30 36 1 15 34
M  V30 37 1 16 35
M  V30 38 1 18 36
M  V30 39 1 21 37
M  V30 40 1 22 38
M  V30 END BOND
M  V30 END CTAB
M  END
>  <Dataset>  (341) 
ChEMBL_Kinases

>  <Ligand_Instance>  (341) 
nan

>  <PDB_ID>  (341) 
nan

>  <Standardized_SMILES>  (341) 
Cc1ccc(NN=c2c(C)nc3ccccc3[nH]c2=O)cc1

>  <Name>  (341) 
nan

>  <Pocket>  (341) 
nan

>  <ATP_Site>  (341) 
nan

>  <Peripheral>  (341) 
nan

>  <Num_H_Atoms_ProtBoundConf>  (341) 
nan

>  <Num_Resolved_Atoms>  (341) 
nan

>  <Num_Not_Resolved_Atoms>  (341) 
nan

$$$$
CHEMBL1453820
     RDKit          3D

  0  0  0  0  0  0  0  0  0  0999 V3000
M  V30 BEGIN CTAB
M  V30 COUNTS 44 46 0 0 0
M  V30 BEGIN ATOM
M  V30 1 C 3.085720 -2.747659 1.484894 0
M  V30 2 C 2.790505 -3.243833 0.120162 0
M  V30 3 C 2.645470 -4.597888 -0.063924 0
M  V30 4 C 2.414057 -5.080816 -1.329569 0
M  V30 5 C 2.340845 -4.160630 -2.352905 0
M  V30 6 C 2.492707 -2.784807 -2.132223 0
M  V30 7 C 2.380317 -1.965494 -3.380871 0
M  V30 8 C 2.728617 -2.272873 -0.846319 0
M  V30 9 O 2.831706 -0.943337 -0.883756 0
M  V30 10 C 1.990297 0.127559 -0.861194 0
M  V30 11 C 1.084475 0.368150 0.250655 0
M  V30 12 O 0.442059 1.458475 -0.052053 0
M  V30 13 N 0.547759 0.003442 1.511052 0
M  V30 14 N -0.436824 0.848311 2.031257 0
M  V30 15 C -0.170798 1.906470 2.822019 0
M  V30 16 C 1.246885 2.204668 3.169590 0
M  V30 17 N -1.180666 2.680809 3.288792 0
M  V30 18 C -2.469258 2.384376 2.954495 0
M  V30 19 C -3.508211 3.185517 3.437985 0
M  V30 20 C -4.777136 2.812773 3.050280 0
M  V30 21 C -5.106276 1.743800 2.245825 0
M  V30 22 C -4.058852 0.975962 1.787231 0
M  V30 23 C -2.755596 1.288229 2.134345 0
M  V30 24 C -1.706775 0.520089 1.675676 0
M  V30 25 O -1.967500 -0.447477 0.950993 0
M  V30 26 H 3.916533 -3.412386 1.864418 0
M  V30 27 H 3.497479 -1.736686 1.512623 0
M  V30 28 H 2.225371 -2.929544 2.159667 0
M  V30 29 H 2.717903 -5.247775 0.796460 0
M  V30 30 H 2.307094 -6.129654 -1.435234 0
M  V30 31 H 2.158131 -4.583796 -3.331863 0
M  V30 32 H 2.888077 -2.527674 -4.181499 0
M  V30 33 H 2.970695 -1.016264 -3.206417 0
M  V30 34 H 1.346480 -1.719600 -3.647546 0
M  V30 35 H 2.633769 1.053199 -1.048353 0
M  V30 36 H 1.377532 0.092096 -1.815893 0
M  V30 37 H 1.072285 -0.870615 1.731414 0
M  V30 38 H 1.833651 2.452182 2.266511 0
M  V30 39 H 1.660974 1.359337 3.759262 0
M  V30 40 H 1.276039 3.139824 3.790920 0
M  V30 41 H -3.331755 4.039977 4.072962 0
M  V30 42 H -5.609955 3.421757 3.413802 0
M  V30 43 H -6.147700 1.550645 2.009262 0
M  V30 44 H -4.278241 0.130340 1.154652 0
M  V30 END ATOM
M  V30 BEGIN BOND
M  V30 1 1 1 2
M  V30 2 2 2 3
M  V30 3 1 3 4
M  V30 4 2 4 5
M  V30 5 1 5 6
M  V30 6 1 6 7
M  V30 7 2 6 8
M  V30 8 1 8 9
M  V30 9 1 9 10
M  V30 10 1 10 11
M  V30 11 2 11 12
M  V30 12 1 11 13
M  V30 13 1 13 14
M  V30 14 1 14 15
M  V30 15 1 15 16
M  V30 16 2 15 17
M  V30 17 1 17 18
M  V30 18 2 18 19
M  V30 19 1 19 20
M  V30 20 2 20 21
M  V30 21 1 21 22
M  V30 22 2 22 23
M  V30 23 1 23 24
M  V30 24 2 24 25
M  V30 25 1 8 2
M  V30 26 1 24 14
M  V30 27 1 23 18
M  V30 28 1 1 26
M  V30 29 1 1 27
M  V30 30 1 1 28
M  V30 31 1 3 29
M  V30 32 1 4 30
M  V30 33 1 5 31
M  V30 34 1 7 32
M  V30 35 1 7 33
M  V30 36 1 7 34
M  V30 37 1 10 35
M  V30 38 1 10 36
M  V30 39 1 13 37
M  V30 40 1 16 38
M  V30 41 1 16 39
M  V30 42 1 16 40
M  V30 43 1 19 41
M  V30 44 1 20 42
M  V30 45 1 21 43
M  V30 46 1 22 44
M  V30 END BOND
M  V30 END CTAB
M  END
>  <Dataset>  (342) 
ChEMBL_Kinases

>  <Ligand_Instance>  (342) 
nan

>  <PDB_ID>  (342) 
nan

>  <Standardized_SMILES>  (342) 
Cc1cccc(C)c1OCC(=O)Nn1c(C)nc2ccccc2c1=O

>  <Name>  (342) 
nan

>  <Pocket>  (342) 
nan

>  <ATP_Site>  (342) 
nan

>  <Peripheral>  (342) 
nan

>  <Num_H_Atoms_ProtBoundConf>  (342) 
nan

>  <Num_Resolved_Atoms>  (342) 
nan

>  <Num_Not_Resolved_Atoms>  (342) 
nan

$$$$
CHEMBL1452670
     RDKit          3D

  0  0  0  0  0  0  0  0  0  0999 V3000
M  V30 BEGIN CTAB
M  V30 COUNTS 49 52 0 0 0
M  V30 BEGIN ATOM
M  V30 1 C -2.052894 1.325155 0.680403 0
M  V30 2 C -1.165367 0.142626 0.383510 0
M  V30 3 C 0.232031 -0.075387 0.348069 0
M  V30 4 N 0.948786 1.079133 0.641314 0
M  V30 5 C 1.532544 1.572547 -0.463633 0
M  V30 6 S 1.924125 1.402197 -2.182625 0
M  V30 7 C 3.534770 0.656977 -2.498302 0
M  V30 8 C 3.688284 -0.728545 -2.077401 0
M  V30 9 O 3.323221 -1.698065 -2.792180 0
M  V30 10 O 4.265996 -1.020287 -0.827555 0
M  V30 11 N 2.138354 2.734561 -0.065676 0
M  V30 12 N 1.904883 2.896524 1.237623 0
M  V30 13 C 1.164869 1.868516 1.687144 0
M  V30 14 C 0.673629 1.766998 3.028127 0
M  V30 15 C 0.534127 3.010103 3.664122 0
M  V30 16 C 0.099378 3.156395 4.958699 0
M  V30 17 C -0.227224 2.064762 5.711164 0
M  V30 18 C -0.108228 0.823180 5.141590 0
M  V30 19 C 0.330709 0.736377 3.847538 0
M  V30 20 Cl 0.527488 -0.865410 3.221995 0
M  V30 21 C 0.287028 -1.409821 -0.005288 0
M  V30 22 O 1.427767 -1.879435 -0.109889 0
M  V30 23 N -0.928336 -1.957053 -0.170421 0
M  V30 24 C -1.079488 -3.323699 -0.535899 0
M  V30 25 C -1.338172 -3.895589 -1.764784 0
M  V30 26 C -1.442212 -5.266563 -1.865423 0
M  V30 27 C -1.290362 -6.068363 -0.752446 0
M  V30 28 C -1.030562 -5.531443 0.492982 0
M  V30 29 C -0.928455 -4.145508 0.579080 0
M  V30 30 N -1.810021 -1.019230 0.064637 0
M  V30 31 C -3.210377 -1.346426 -0.045463 0
M  V30 32 H -2.551378 1.677735 -0.268029 0
M  V30 33 H -2.852456 1.016641 1.368957 0
M  V30 34 H -1.464715 2.162915 1.117656 0
M  V30 35 H 4.295506 1.268352 -1.918863 0
M  V30 36 H 3.840789 0.820649 -3.571940 0
M  V30 37 H 4.418623 -1.974803 -0.526767 0
M  V30 38 H 0.757769 3.974246 3.187622 0
M  V30 39 H -0.003727 4.117915 5.426237 0
M  V30 40 H -0.569092 2.182830 6.723437 0
M  V30 41 H -0.357103 -0.058800 5.707157 0
M  V30 42 H -1.433721 -3.152730 -2.547809 0
M  V30 43 H -1.644726 -5.647423 -2.855060 0
M  V30 44 H -1.376062 -7.145203 -0.845203 0
M  V30 45 H -0.918449 -6.197515 1.334900 0
M  V30 46 H -0.720705 -3.819872 1.607900 0
M  V30 47 H -3.832509 -0.432358 -0.122975 0
M  V30 48 H -3.447627 -1.948796 -0.939198 0
M  V30 49 H -3.473808 -1.956459 0.836565 0
M  V30 END ATOM
M  V30 BEGIN BOND
M  V30 1 1 1 2
M  V30 2 2 2 3
M  V30 3 1 3 4
M  V30 4 1 4 5
M  V30 5 1 5 6
M  V30 6 1 6 7
M  V30 7 1 7 8
M  V30 8 2 8 9
M  V30 9 1 8 10
M  V30 10 2 5 11
M  V30 11 1 11 12
M  V30 12 2 12 13
M  V30 13 1 13 14
M  V30 14 2 14 15
M  V30 15 1 15 16
M  V30 16 2 16 17
M  V30 17 1 17 18
M  V30 18 2 18 19
M  V30 19 1 19 20
M  V30 20 1 3 21
M  V30 21 2 21 22
M  V30 22 1 21 23
M  V30 23 1 23 24
M  V30 24 2 24 25
M  V30 25 1 25 26
M  V30 26 2 26 27
M  V30 27 1 27 28
M  V30 28 2 28 29
M  V30 29 1 23 30
M  V30 30 1 30 31
M  V30 31 1 30 2
M  V30 32 1 13 4
M  V30 33 1 19 14
M  V30 34 1 29 24
M  V30 35 1 1 32
M  V30 36 1 1 33
M  V30 37 1 1 34
M  V30 38 1 7 35
M  V30 39 1 7 36
M  V30 40 1 10 37
M  V30 41 1 15 38
M  V30 42 1 16 39
M  V30 43 1 17 40
M  V30 44 1 18 41
M  V30 45 1 25 42
M  V30 46 1 26 43
M  V30 47 1 27 44
M  V30 48 1 28 45
M  V30 49 1 29 46
M  V30 50 1 31 47
M  V30 51 1 31 48
M  V30 52 1 31 49
M  V30 END BOND
M  V30 END CTAB
M  END
>  <Dataset>  (343) 
ChEMBL_Kinases

>  <Ligand_Instance>  (343) 
nan

>  <PDB_ID>  (343) 
nan

>  <Standardized_SMILES>  (343) 
Cc1c(-n2c(SCC(=O)O)nnc2-c2ccccc2Cl)c(=O)n(-c2ccccc2)n1C

>  <Name>  (343) 
nan

>  <Pocket>  (343) 
nan

>  <ATP_Site>  (343) 
nan

>  <Peripheral>  (343) 
nan

>  <Num_H_Atoms_ProtBoundConf>  (343) 
nan

>  <Num_Resolved_Atoms>  (343) 
nan

>  <Num_Not_Resolved_Atoms>  (343) 
nan

$$$$
CHEMBL1444923
     RDKit          3D

  0  0  0  0  0  0  0  0  0  0999 V3000
M  V30 BEGIN CTAB
M  V30 COUNTS 31 33 0 0 0
M  V30 BEGIN ATOM
M  V30 1 O -0.809945 -3.655882 -0.862672 0
M  V30 2 C 0.099035 -3.525921 0.001544 0
M  V30 3 O 0.759748 -4.403927 0.712927 0
M  V30 4 C 1.628411 -3.775736 1.495689 0
M  V30 5 C 2.526366 -4.298470 2.405137 0
M  V30 6 C 3.344194 -3.445820 3.119744 0
M  V30 7 C 3.262031 -2.062597 2.922267 0
M  V30 8 C 2.350510 -1.577193 2.002950 0
M  V30 9 C 1.518289 -2.408622 1.272670 0
M  V30 10 N 0.554849 -2.292706 0.334971 0
M  V30 11 C 0.129088 -1.007975 -0.184985 0
M  V30 12 C -1.002757 -0.391273 0.592110 0
M  V30 13 C -1.429577 0.924486 0.050237 0
M  V30 14 C -0.825002 2.055608 0.527831 0
M  V30 15 C -1.131001 3.336608 0.106636 0
M  V30 16 C -2.122447 3.467915 -0.868890 0
M  V30 17 C -2.729137 2.323842 -1.347281 0
M  V30 18 C -2.414580 1.047068 -0.918184 0
M  V30 19 H 2.634932 -5.350181 2.599680 0
M  V30 20 H 4.060326 -3.818722 3.841282 0
M  V30 21 H 3.889547 -1.371836 3.467444 0
M  V30 22 H 2.250657 -0.528039 1.817021 0
M  V30 23 H -0.291897 -1.238829 -1.207274 0
M  V30 24 H 0.954326 -0.324092 -0.378997 0
M  V30 25 H -0.706941 -0.341958 1.660091 0
M  V30 26 H -1.907263 -1.033669 0.553452 0
M  V30 27 H -0.051138 1.958192 1.288761 0
M  V30 28 H -0.601601 4.181095 0.538978 0
M  V30 29 H -2.382312 4.456471 -1.216972 0
M  V30 30 H -3.503820 2.412593 -2.108185 0
M  V30 31 H -2.898252 0.165258 -1.302519 0
M  V30 END ATOM
M  V30 BEGIN BOND
M  V30 1 2 1 2
M  V30 2 1 2 3
M  V30 3 1 3 4
M  V30 4 2 4 5
M  V30 5 1 5 6
M  V30 6 2 6 7
M  V30 7 1 7 8
M  V30 8 2 8 9
M  V30 9 1 9 10
M  V30 10 1 10 11
M  V30 11 1 11 12
M  V30 12 1 12 13
M  V30 13 2 13 14
M  V30 14 1 14 15
M  V30 15 2 15 16
M  V30 16 1 16 17
M  V30 17 2 17 18
M  V30 18 1 10 2
M  V30 19 1 18 13
M  V30 20 1 9 4
M  V30 21 1 5 19
M  V30 22 1 6 20
M  V30 23 1 7 21
M  V30 24 1 8 22
M  V30 25 1 11 23
M  V30 26 1 11 24
M  V30 27 1 12 25
M  V30 28 1 12 26
M  V30 29 1 14 27
M  V30 30 1 15 28
M  V30 31 1 16 29
M  V30 32 1 17 30
M  V30 33 1 18 31
M  V30 END BOND
M  V30 END CTAB
M  END
>  <Dataset>  (344) 
ChEMBL_Kinases

>  <Ligand_Instance>  (344) 
nan

>  <PDB_ID>  (344) 
nan

>  <Standardized_SMILES>  (344) 
O=c1oc2ccccc2n1CCc1ccccc1

>  <Name>  (344) 
nan

>  <Pocket>  (344) 
nan

>  <ATP_Site>  (344) 
nan

>  <Peripheral>  (344) 
nan

>  <Num_H_Atoms_ProtBoundConf>  (344) 
nan

>  <Num_Resolved_Atoms>  (344) 
nan

>  <Num_Not_Resolved_Atoms>  (344) 
nan

$$$$
CHEMBL1444884
     RDKit          3D

  0  0  0  0  0  0  0  0  0  0999 V3000
M  V30 BEGIN CTAB
M  V30 COUNTS 33 35 0 0 0
M  V30 BEGIN ATOM
M  V30 1 C -0.705058 -4.180442 4.650742 0
M  V30 2 O -1.332432 -3.848717 3.428016 0
M  V30 3 C -0.793815 -2.826894 2.663892 0
M  V30 4 C 0.320242 -2.067254 2.962844 0
M  V30 5 C 0.772222 -1.072447 2.130969 0
M  V30 6 C 0.105464 -0.807475 0.953080 0
M  V30 7 C 0.590240 0.250593 0.073211 0
M  V30 8 C 0.032602 0.630211 -1.131294 0
M  V30 9 N 0.810993 1.644162 -1.593173 0
M  V30 10 C 0.772464 2.411748 -2.705583 0
M  V30 11 C 1.698077 3.405530 -2.960611 0
M  V30 12 C 2.715391 3.633978 -2.041752 0
M  V30 13 C 2.772863 2.857451 -0.893912 0
M  V30 14 C 1.820179 1.889740 -0.707968 0
M  V30 15 N 1.669472 1.012882 0.326207 0
M  V30 16 C -1.010797 -1.550239 0.628026 0
M  V30 17 C -1.467406 -2.556420 1.470065 0
M  V30 18 O -2.601186 -3.284592 1.103472 0
M  V30 19 C -3.213772 -2.941720 -0.116721 0
M  V30 20 H 0.392303 -4.209488 4.476497 0
M  V30 21 H -1.049380 -5.170766 5.027053 0
M  V30 22 H -0.932415 -3.415931 5.419467 0
M  V30 23 H 0.814641 -2.300247 3.886930 0
M  V30 24 H 1.651237 -0.525492 2.439604 0
M  V30 25 H -0.829332 0.241325 -1.638652 0
M  V30 26 H -0.028163 2.231699 -3.428356 0
M  V30 27 H 1.631848 4.006720 -3.875670 0
M  V30 28 H 3.450565 4.407203 -2.221970 0
M  V30 29 H 3.559377 3.028153 -0.175298 0
M  V30 30 H -1.494643 -1.295382 -0.313597 0
M  V30 31 H -4.080105 -3.631907 -0.319310 0
M  V30 32 H -2.471555 -3.027259 -0.942741 0
M  V30 33 H -3.629142 -1.920793 -0.138362 0
M  V30 END ATOM
M  V30 BEGIN BOND
M  V30 1 1 1 2
M  V30 2 1 2 3
M  V30 3 2 3 4
M  V30 4 1 4 5
M  V30 5 2 5 6
M  V30 6 1 6 7
M  V30 7 2 7 8
M  V30 8 1 8 9
M  V30 9 1 9 10
M  V30 10 2 10 11
M  V30 11 1 11 12
M  V30 12 2 12 13
M  V30 13 1 13 14
M  V30 14 2 14 15
M  V30 15 1 6 16
M  V30 16 2 16 17
M  V30 17 1 17 18
M  V30 18 1 18 19
M  V30 19 1 17 3
M  V30 20 1 15 7
M  V30 21 1 14 9
M  V30 22 1 1 20
M  V30 23 1 1 21
M  V30 24 1 1 22
M  V30 25 1 4 23
M  V30 26 1 5 24
M  V30 27 1 8 25
M  V30 28 1 10 26
M  V30 29 1 11 27
M  V30 30 1 12 28
M  V30 31 1 13 29
M  V30 32 1 16 30
M  V30 33 1 19 31
M  V30 34 1 19 32
M  V30 35 1 19 33
M  V30 END BOND
M  V30 END CTAB
M  END
>  <Dataset>  (345) 
ChEMBL_Kinases

>  <Ligand_Instance>  (345) 
nan

>  <PDB_ID>  (345) 
nan

>  <Standardized_SMILES>  (345) 
COc1ccc(-c2cn3ccccc3n2)cc1OC

>  <Name>  (345) 
nan

>  <Pocket>  (345) 
nan

>  <ATP_Site>  (345) 
nan

>  <Peripheral>  (345) 
nan

>  <Num_H_Atoms_ProtBoundConf>  (345) 
nan

>  <Num_Resolved_Atoms>  (345) 
nan

>  <Num_Not_Resolved_Atoms>  (345) 
nan

$$$$
CHEMBL1444632
     RDKit          3D

  0  0  0  0  0  0  0  0  0  0999 V3000
M  V30 BEGIN CTAB
M  V30 COUNTS 51 53 0 0 0
M  V30 BEGIN ATOM
M  V30 1 C -1.910391 -6.561476 -0.319666 0
M  V30 2 O -0.973765 -5.638069 -0.783249 0
M  V30 3 C -0.822471 -4.350342 -0.289990 0
M  V30 4 C -1.600585 -3.839370 0.732940 0
M  V30 5 C -1.428476 -2.535767 1.213572 0
M  V30 6 C -0.431173 -1.776542 0.608040 0
M  V30 7 C 0.360899 -2.252734 -0.411269 0
M  V30 8 C 0.148646 -3.544140 -0.846141 0
M  V30 9 O 0.928625 -4.045920 -1.866274 0
M  V30 10 C 1.943656 -3.333906 -2.512770 0
M  V30 11 C -0.268562 -0.422796 1.119672 0
M  V30 12 C 0.653744 0.314808 0.583144 0
M  V30 13 C 0.849515 1.669766 1.062071 0
M  V30 14 O 0.424080 2.481338 1.876820 0
M  V30 15 N 1.798109 2.625725 0.611857 0
M  V30 16 C 1.909232 3.957996 1.159211 0
M  V30 17 C 3.319375 4.022775 1.762905 0
M  V30 18 O 4.206474 3.924268 0.704128 0
M  V30 19 C 4.150954 2.677670 0.086789 0
M  V30 20 C 2.763167 2.382811 -0.441766 0
M  V30 21 N -1.122155 0.006146 2.172815 0
M  V30 22 C -2.438759 -0.578784 2.268822 0
M  V30 23 C -3.193745 -0.222220 1.005459 0
M  V30 24 C -3.231036 -0.021817 3.423447 0
M  V30 25 C -2.304904 -2.066157 2.315849 0
M  V30 26 H -2.160667 -7.243876 -1.166364 0
M  V30 27 H -1.436008 -7.183415 0.493107 0
M  V30 28 H -2.828016 -6.047576 0.026138 0
M  V30 29 H -2.356277 -4.434190 1.181942 0
M  V30 30 H 1.119213 -1.684934 -0.876495 0
M  V30 31 H 1.536738 -2.639365 -3.281875 0
M  V30 32 H 2.593390 -4.099336 -3.023238 0
M  V30 33 H 2.580645 -2.786852 -1.794303 0
M  V30 34 H 1.332053 0.100179 -0.185946 0
M  V30 35 H 1.149243 4.234720 1.886636 0
M  V30 36 H 1.960891 4.682148 0.296618 0
M  V30 37 H 3.400570 3.196603 2.476685 0
M  V30 38 H 3.488652 5.022601 2.215191 0
M  V30 39 H 4.864225 2.702071 -0.761365 0
M  V30 40 H 4.517569 1.939265 0.812535 0
M  V30 41 H 2.562638 3.169031 -1.213553 0
M  V30 42 H 2.755337 1.378869 -0.855360 0
M  V30 43 H -0.710446 0.727898 2.803881 0
M  V30 44 H -2.805115 0.686630 0.515405 0
M  V30 45 H -3.117400 -1.041618 0.240044 0
M  V30 46 H -4.277339 -0.099615 1.199933 0
M  V30 47 H -2.650547 0.110827 4.344451 0
M  V30 48 H -3.666799 0.937518 3.076154 0
M  V30 49 H -4.086686 -0.726491 3.569862 0
M  V30 50 H -3.322688 -2.508412 2.194543 0
M  V30 51 H -1.925930 -2.392652 3.313618 0
M  V30 END ATOM
M  V30 BEGIN BOND
M  V30 1 1 1 2
M  V30 2 1 2 3
M  V30 3 2 3 4
M  V30 4 1 4 5
M  V30 5 2 5 6
M  V30 6 1 6 7
M  V30 7 2 7 8
M  V30 8 1 8 9
M  V30 9 1 9 10
M  V30 10 1 6 11
M  V30 11 2 11 12
M  V30 12 1 12 13
M  V30 13 2 13 14
M  V30 14 1 13 15
M  V30 15 1 15 16
M  V30 16 1 16 17
M  V30 17 1 17 18
M  V30 18 1 18 19
M  V30 19 1 19 20
M  V30 20 1 11 21
M  V30 21 1 21 22
M  V30 22 1 22 23
M  V30 23 1 22 24
M  V30 24 1 22 25
M  V30 25 1 8 3
M  V30 26 1 20 15
M  V30 27 1 25 5
M  V30 28 1 1 26
M  V30 29 1 1 27
M  V30 30 1 1 28
M  V30 31 1 4 29
M  V30 32 1 7 30
M  V30 33 1 10 31
M  V30 34 1 10 32
M  V30 35 1 10 33
M  V30 36 1 12 34
M  V30 37 1 16 35
M  V30 38 1 16 36
M  V30 39 1 17 37
M  V30 40 1 17 38
M  V30 41 1 19 39
M  V30 42 1 19 40
M  V30 43 1 20 41
M  V30 44 1 20 42
M  V30 45 1 21 43
M  V30 46 1 23 44
M  V30 47 1 23 45
M  V30 48 1 23 46
M  V30 49 1 24 47
M  V30 50 1 24 48
M  V30 51 1 24 49
M  V30 52 1 25 50
M  V30 53 1 25 51
M  V30 END BOND
M  V30 END CTAB
M  END
>  <Dataset>  (346) 
ChEMBL_Kinases

>  <Ligand_Instance>  (346) 
nan

>  <PDB_ID>  (346) 
nan

>  <Standardized_SMILES>  (346) 
COc1cc2c(cc1OC)/C(=C/C(=O)N1CCOCC1)NC(C)(C)C2

>  <Name>  (346) 
nan

>  <Pocket>  (346) 
nan

>  <ATP_Site>  (346) 
nan

>  <Peripheral>  (346) 
nan

>  <Num_H_Atoms_ProtBoundConf>  (346) 
nan

>  <Num_Resolved_Atoms>  (346) 
nan

>  <Num_Not_Resolved_Atoms>  (346) 
nan

$$$$
CHEMBL1444530
     RDKit          3D

  0  0  0  0  0  0  0  0  0  0999 V3000
M  V30 BEGIN CTAB
M  V30 COUNTS 43 45 0 0 0
M  V30 BEGIN ATOM
M  V30 1 C -2.495580 -4.580324 -0.869274 0
M  V30 2 C -2.265463 -3.086326 -0.798510 0
M  V30 3 N -1.636753 -2.655168 0.418841 0
M  V30 4 C -0.318719 -2.542197 0.633879 0
M  V30 5 S 0.769023 -2.971111 -0.719174 0
M  V30 6 C 1.100814 -1.532223 -1.770170 0
M  V30 7 C 1.891609 -0.546826 -0.944306 0
M  V30 8 O 2.306849 -0.603521 0.243651 0
M  V30 9 N 2.204749 0.654386 -1.682265 0
M  V30 10 C 2.960074 1.632035 -0.937419 0
M  V30 11 C 2.156622 2.504642 -0.270921 0
M  V30 12 C 2.731275 3.510203 0.494131 0
M  V30 13 C 4.105044 3.598916 0.558918 0
M  V30 14 C 4.881818 2.692099 -0.133739 0
M  V30 15 C 4.338350 1.672594 -0.909109 0
M  V30 16 F 5.030924 0.758048 -1.607874 0
M  V30 17 N 0.227457 -2.132997 1.786773 0
M  V30 18 C -0.535068 -1.789289 2.865587 0
M  V30 19 C -1.888527 -1.908673 2.635811 0
M  V30 20 C -2.419417 -2.324851 1.459765 0
M  V30 21 O -3.674964 -2.376698 1.416293 0
M  V30 22 S -2.614685 -1.389362 4.213460 0
M  V30 23 C -1.155180 -0.435206 4.776240 0
M  V30 24 C -1.177714 0.910976 4.118959 0
M  V30 25 C -0.071360 -1.327430 4.193588 0
M  V30 26 H -3.563183 -4.842356 -0.834702 0
M  V30 27 H -1.974587 -5.013489 -1.754025 0
M  V30 28 H -2.042440 -5.044018 0.030563 0
M  V30 29 H -3.270731 -2.603027 -0.911953 0
M  V30 30 H -1.693023 -2.747886 -1.707559 0
M  V30 31 H 0.201847 -1.080682 -2.192219 0
M  V30 32 H 1.725031 -1.898115 -2.619916 0
M  V30 33 H 1.958668 0.896793 -2.665511 0
M  V30 34 H 1.081156 2.513141 -0.264022 0
M  V30 35 H 2.129773 4.233289 1.047741 0
M  V30 36 H 4.572593 4.378717 1.150277 0
M  V30 37 H 5.979487 2.717499 -0.118343 0
M  V30 38 H -1.074995 -0.401470 5.872592 0
M  V30 39 H -1.534470 1.716028 4.774895 0
M  V30 40 H -1.761255 0.873500 3.167070 0
M  V30 41 H -0.127008 1.188692 3.826805 0
M  V30 42 H 0.038177 -2.219895 4.850573 0
M  V30 43 H 0.878748 -0.777797 4.063391 0
M  V30 END ATOM
M  V30 BEGIN BOND
M  V30 1 1 1 2
M  V30 2 1 2 3
M  V30 3 1 3 4
M  V30 4 1 4 5
M  V30 5 1 5 6
M  V30 6 1 6 7
M  V30 7 2 7 8
M  V30 8 1 7 9
M  V30 9 1 9 10
M  V30 10 2 10 11
M  V30 11 1 11 12
M  V30 12 2 12 13
M  V30 13 1 13 14
M  V30 14 2 14 15
M  V30 15 1 15 16
M  V30 16 2 4 17
M  V30 17 1 17 18
M  V30 18 2 18 19
M  V30 19 1 19 20
M  V30 20 2 20 21
M  V30 21 1 19 22
M  V30 22 1 22 23
M  V30 23 1 23 24
M  V30 24 1 23 25
M  V30 25 1 20 3
M  V30 26 1 15 10
M  V30 27 1 25 18
M  V30 28 1 1 26
M  V30 29 1 1 27
M  V30 30 1 1 28
M  V30 31 1 2 29
M  V30 32 1 2 30
M  V30 33 1 6 31
M  V30 34 1 6 32
M  V30 35 1 9 33
M  V30 36 1 11 34
M  V30 37 1 12 35
M  V30 38 1 13 36
M  V30 39 1 14 37
M  V30 40 1 23 38
M  V30 41 1 24 39
M  V30 42 1 24 40
M  V30 43 1 24 41
M  V30 44 1 25 42
M  V30 45 1 25 43
M  V30 END BOND
M  V30 END CTAB
M  END
>  <Dataset>  (347) 
ChEMBL_Kinases

>  <Ligand_Instance>  (347) 
nan

>  <PDB_ID>  (347) 
nan

>  <Standardized_SMILES>  (347) 
CCn1c(SCC(=O)Nc2ccccc2F)nc2c(c1=O)SC(C)C2

>  <Name>  (347) 
nan

>  <Pocket>  (347) 
nan

>  <ATP_Site>  (347) 
nan

>  <Peripheral>  (347) 
nan

>  <Num_H_Atoms_ProtBoundConf>  (347) 
nan

>  <Num_Resolved_Atoms>  (347) 
nan

>  <Num_Not_Resolved_Atoms>  (347) 
nan

$$$$
CHEMBL1444434
     RDKit          3D

  0  0  0  0  0  0  0  0  0  0999 V3000
M  V30 BEGIN CTAB
M  V30 COUNTS 47 48 0 0 0
M  V30 BEGIN ATOM
M  V30 1 C 4.478796 -2.348270 -2.736812 0
M  V30 2 C 3.571680 -2.341877 -1.766079 0
M  V30 3 C 2.643182 -3.428540 -1.426744 0
M  V30 4 N 1.251312 -3.091745 -1.518507 0
M  V30 5 C 0.508493 -3.265761 -2.717746 0
M  V30 6 O 1.135419 -3.736404 -3.713548 0
M  V30 7 N -0.873813 -2.928775 -2.800665 0
M  V30 8 C -1.535687 -2.400649 -1.647750 0
M  V30 9 O -2.742066 -2.132597 -1.804815 0
M  V30 10 C -0.799448 -2.205487 -0.385354 0
M  V30 11 C -1.457768 -1.712099 0.657863 0
M  V30 12 C -0.709009 -1.517569 1.928843 0
M  V30 13 N -2.846951 -1.376157 0.566144 0
M  V30 14 C -3.228755 0.017249 0.716497 0
M  V30 15 C -2.579710 0.862485 -0.333082 0
M  V30 16 C -1.333444 1.471916 -0.170217 0
M  V30 17 C -0.823898 2.231936 -1.201465 0
M  V30 18 O 0.426456 2.850409 -1.053211 0
M  V30 19 C 1.084077 2.639794 0.176383 0
M  V30 20 C -1.484774 2.421163 -2.388998 0
M  V30 21 C -2.732926 1.824116 -2.580705 0
M  V30 22 O -3.498640 1.942316 -3.739460 0
M  V30 23 C -3.014579 2.716805 -4.831923 0
M  V30 24 C -3.222691 1.071823 -1.542688 0
M  V30 25 C 0.617687 -2.569064 -0.359208 0
M  V30 26 O 1.262049 -2.414049 0.694286 0
M  V30 27 H 4.527187 -3.266550 -3.337979 0
M  V30 28 H 5.079831 -1.467954 -2.850609 0
M  V30 29 H 3.418957 -1.501235 -1.100169 0
M  V30 30 H 2.838754 -3.846312 -0.418706 0
M  V30 31 H 2.793398 -4.287193 -2.142683 0
M  V30 32 H -1.367178 -3.078697 -3.708858 0
M  V30 33 H 0.092177 -0.757094 1.856088 0
M  V30 34 H -0.387783 -2.487450 2.348649 0
M  V30 35 H -1.418123 -1.094985 2.688690 0
M  V30 36 H -3.537936 -2.155881 0.392786 0
M  V30 37 H -2.929349 0.331685 1.735286 0
M  V30 38 H -4.313826 0.097216 0.580921 0
M  V30 39 H -0.820439 1.318865 0.764852 0
M  V30 40 H 2.130896 3.052056 0.094418 0
M  V30 41 H 1.191761 1.549391 0.409961 0
M  V30 42 H 0.555704 3.195826 0.976779 0
M  V30 43 H -1.108037 3.014464 -3.218882 0
M  V30 44 H -2.065911 2.289061 -5.203992 0
M  V30 45 H -2.892240 3.773497 -4.544304 0
M  V30 46 H -3.766029 2.580839 -5.644952 0
M  V30 47 H -4.188641 0.594820 -1.658927 0
M  V30 END ATOM
M  V30 BEGIN BOND
M  V30 1 2 1 2
M  V30 2 1 2 3
M  V30 3 1 3 4
M  V30 4 1 4 5
M  V30 5 2 5 6
M  V30 6 1 5 7
M  V30 7 1 7 8
M  V30 8 2 8 9
M  V30 9 1 8 10
M  V30 10 2 10 11
M  V30 11 1 11 12
M  V30 12 1 11 13
M  V30 13 1 13 14
M  V30 14 1 14 15
M  V30 15 2 15 16
M  V30 16 1 16 17
M  V30 17 1 17 18
M  V30 18 1 18 19
M  V30 19 2 17 20
M  V30 20 1 20 21
M  V30 21 1 21 22
M  V30 22 1 22 23
M  V30 23 2 21 24
M  V30 24 1 10 25
M  V30 25 2 25 26
M  V30 26 1 25 4
M  V30 27 1 24 15
M  V30 28 1 1 27
M  V30 29 1 1 28
M  V30 30 1 2 29
M  V30 31 1 3 30
M  V30 32 1 3 31
M  V30 33 1 7 32
M  V30 34 1 12 33
M  V30 35 1 12 34
M  V30 36 1 12 35
M  V30 37 1 13 36
M  V30 38 1 14 37
M  V30 39 1 14 38
M  V30 40 1 16 39
M  V30 41 1 19 40
M  V30 42 1 19 41
M  V30 43 1 19 42
M  V30 44 1 20 43
M  V30 45 1 23 44
M  V30 46 1 23 45
M  V30 47 1 23 46
M  V30 48 1 24 47
M  V30 END BOND
M  V30 END CTAB
M  END
>  <Dataset>  (348) 
ChEMBL_Kinases

>  <Ligand_Instance>  (348) 
nan

>  <PDB_ID>  (348) 
nan

>  <Standardized_SMILES>  (348) 
C=CCN1C(=O)NC(=O)/C(=C(/C)NCc2cc(OC)cc(OC)c2)C1=O

>  <Name>  (348) 
nan

>  <Pocket>  (348) 
nan

>  <ATP_Site>  (348) 
nan

>  <Peripheral>  (348) 
nan

>  <Num_H_Atoms_ProtBoundConf>  (348) 
nan

>  <Num_Resolved_Atoms>  (348) 
nan

>  <Num_Not_Resolved_Atoms>  (348) 
nan

$$$$
CHEMBL1444270
     RDKit          3D

  0  0  0  0  0  0  0  0  0  0999 V3000
M  V30 BEGIN CTAB
M  V30 COUNTS 68 72 0 0 0
M  V30 BEGIN ATOM
M  V30 1 C 2.697111 -3.841896 1.286740 0
M  V30 2 O 2.105934 -2.589761 1.468657 0
M  V30 3 C 1.142643 -2.057501 0.628437 0
M  V30 4 O 1.261233 -3.134819 -0.030256 0
M  V30 5 C 0.467055 -0.718454 0.767778 0 CFG=1
M  V30 6 C 0.669619 0.027664 -0.503231 0
M  V30 7 C 0.065285 1.367186 -0.575161 0
M  V30 8 C 0.624100 2.555688 -0.162510 0
M  V30 9 C 0.041954 3.797277 -0.254367 0
M  V30 10 C -1.217848 3.904224 -0.804954 0
M  V30 11 O -1.827176 5.124362 -0.911520 0
M  V30 12 C -3.106966 5.358166 -1.453129 0
M  V30 13 C -1.838893 2.753251 -1.240684 0
M  V30 14 C -1.213342 1.527995 -1.127229 0
M  V30 15 C -0.979515 -0.858102 1.078313 0 CFG=1
M  V30 16 C -1.391118 -2.234445 0.711057 0
M  V30 17 C -1.716246 -2.983786 -0.400605 0
M  V30 18 C -2.010627 -4.268483 0.071682 0
M  V30 19 C -2.406357 -5.347001 -0.853075 0
M  V30 20 O -1.546373 -6.272745 -0.858284 0
M  V30 21 N -3.658942 -5.069639 -1.505345 0
M  V30 22 C -4.611048 -3.967755 -1.452567 0
M  V30 23 C -3.884749 -6.224593 -2.362680 0
M  V30 24 N -1.859850 -4.261137 1.416582 0
M  V30 25 C -1.488457 -3.052778 1.826203 0
M  V30 26 C -1.135969 -2.248554 3.048807 0
M  V30 27 C -1.103738 -0.829091 2.590046 0 CFG=1
M  V30 28 C 0.069567 -0.030016 3.043270 0
M  V30 29 N 1.029712 -0.033358 1.946611 0
M  V30 30 C 2.217491 0.623620 2.358991 0
M  V30 31 O 1.934384 0.942256 3.539627 0
M  V30 32 C 3.486571 0.942732 1.768279 0
M  V30 33 C 3.986053 2.149932 2.271867 0
M  V30 34 C 5.204077 2.668121 1.845743 0
M  V30 35 C 5.900702 1.939975 0.903183 0
M  V30 36 C 5.439078 0.748054 0.386041 0
M  V30 37 C 4.228045 0.261240 0.829205 0
M  V30 38 H 3.413345 -4.002267 2.130230 0
M  V30 39 H 1.918275 -4.615749 1.382453 0
M  V30 40 H 3.202637 -3.984748 0.312177 0
M  V30 41 H 0.183784 -0.590651 -1.314479 0
M  V30 42 H 1.738530 0.090411 -0.811596 0
M  V30 43 H 1.601245 2.518555 0.268169 0
M  V30 44 H 0.566097 4.677397 0.101712 0
M  V30 45 H -3.000703 5.452432 -2.562124 0
M  V30 46 H -3.862168 4.635812 -1.147794 0
M  V30 47 H -3.466655 6.364587 -1.109500 0
M  V30 48 H -2.824319 2.881888 -1.664673 0
M  V30 49 H -1.813077 0.713076 -1.518463 0
M  V30 50 H -1.619402 -0.071592 0.690848 0
M  V30 51 H -1.736590 -2.633578 -1.431073 0
M  V30 52 H -4.914890 -3.784359 -2.511532 0
M  V30 53 H -5.485041 -4.182011 -0.802467 0
M  V30 54 H -4.079248 -3.050604 -1.129699 0
M  V30 55 H -4.919320 -6.133244 -2.807575 0
M  V30 56 H -3.886767 -7.186769 -1.799805 0
M  V30 57 H -3.196868 -6.243472 -3.237574 0
M  V30 58 H -2.026065 -5.117757 2.004063 0
M  V30 59 H -0.137412 -2.555061 3.426123 0
M  V30 60 H -1.937671 -2.436133 3.802359 0
M  V30 61 H -2.078134 -0.354592 2.877537 0
M  V30 62 H 0.471219 -0.525413 3.948779 0
M  V30 63 H -0.239633 1.025587 3.203946 0
M  V30 64 H 3.503080 2.792740 3.018530 0
M  V30 65 H 5.615829 3.597095 2.216285 0
M  V30 66 H 6.859134 2.342235 0.564921 0
M  V30 67 H 5.988958 0.177357 -0.355007 0
M  V30 68 H 3.771204 -0.649865 0.498475 0
M  V30 END ATOM
M  V30 BEGIN BOND
M  V30 1 1 1 2
M  V30 2 1 2 3
M  V30 3 2 3 4
M  V30 4 1 3 5
M  V30 5 1 5 6 CFG=3
M  V30 6 1 6 7
M  V30 7 2 7 8
M  V30 8 1 8 9
M  V30 9 2 9 10
M  V30 10 1 10 11
M  V30 11 1 11 12
M  V30 12 1 10 13
M  V30 13 2 13 14
M  V30 14 1 5 15
M  V30 15 1 15 16
M  V30 16 1 16 17
M  V30 17 2 17 18
M  V30 18 1 18 19
M  V30 19 2 19 20
M  V30 20 1 19 21
M  V30 21 1 21 22
M  V30 22 1 21 23
M  V30 23 1 18 24
M  V30 24 1 24 25
M  V30 25 1 25 26
M  V30 26 1 26 27
M  V30 27 1 27 28
M  V30 28 1 28 29
M  V30 29 1 29 30
M  V30 30 2 30 31
M  V30 31 1 30 32
M  V30 32 2 32 33
M  V30 33 1 33 34
M  V30 34 2 34 35
M  V30 35 1 35 36
M  V30 36 2 36 37
M  V30 37 1 29 5
M  V30 38 1 37 32
M  V30 39 1 14 7
M  V30 40 1 27 15
M  V30 41 2 25 16
M  V30 42 1 1 38
M  V30 43 1 1 39
M  V30 44 1 1 40
M  V30 45 1 6 41
M  V30 46 1 6 42
M  V30 47 1 8 43
M  V30 48 1 9 44
M  V30 49 1 12 45
M  V30 50 1 12 46
M  V30 51 1 12 47
M  V30 52 1 13 48
M  V30 53 1 14 49
M  V30 54 1 15 50 CFG=3
M  V30 55 1 17 51
M  V30 56 1 22 52
M  V30 57 1 22 53
M  V30 58 1 22 54
M  V30 59 1 23 55
M  V30 60 1 23 56
M  V30 61 1 23 57
M  V30 62 1 24 58
M  V30 63 1 26 59
M  V30 64 1 26 60
M  V30 65 1 27 61 CFG=3
M  V30 66 1 28 62
M  V30 67 1 28 63
M  V30 68 1 33 64
M  V30 69 1 34 65
M  V30 70 1 35 66
M  V30 71 1 36 67
M  V30 72 1 37 68
M  V30 END BOND
M  V30 END CTAB
M  END
>  <Dataset>  (349) 
ChEMBL_Kinases

>  <Ligand_Instance>  (349) 
nan

>  <PDB_ID>  (349) 
nan

>  <Standardized_SMILES>  (349) 
COC(=O)[C@@]1(Cc2ccc(OC)cc2)[C@H]2c3cc(C(=O)N(C)C)[nH]c3C[C@H]2CN1C(=O)c1ccccc1

>  <Name>  (349) 
nan

>  <Pocket>  (349) 
nan

>  <ATP_Site>  (349) 
nan

>  <Peripheral>  (349) 
nan

>  <Num_H_Atoms_ProtBoundConf>  (349) 
nan

>  <Num_Resolved_Atoms>  (349) 
nan

>  <Num_Not_Resolved_Atoms>  (349) 
nan

$$$$
CHEMBL1444151
     RDKit          3D

  0  0  0  0  0  0  0  0  0  0999 V3000
M  V30 BEGIN CTAB
M  V30 COUNTS 51 54 0 0 0
M  V30 BEGIN ATOM
M  V30 1 O -2.887705 -4.072189 2.008791 0
M  V30 2 S -1.470574 -3.795165 1.553872 0
M  V30 3 O -0.595943 -4.547321 2.556949 0
M  V30 4 N -1.046798 -2.153183 1.597313 0
M  V30 5 C -1.795446 -1.130258 1.631183 0
M  V30 6 N -0.953272 0.046362 1.659903 0
M  V30 7 C 0.389860 0.097448 1.133024 0
M  V30 8 C 1.211991 1.203785 1.150395 0
M  V30 9 C 2.473114 1.102233 0.606963 0
M  V30 10 N 3.322661 2.235043 0.622050 0
M  V30 11 C 4.657039 2.182336 0.051762 0
M  V30 12 C 5.608966 2.687897 1.103026 0
M  V30 13 O 5.212228 3.826627 1.748592 0
M  V30 14 C 4.071819 4.430445 1.288817 0
M  V30 15 C 2.887912 3.487390 1.208964 0
M  V30 16 N 2.867551 -0.065861 0.076852 0
M  V30 17 C 2.041342 -1.128443 0.074972 0
M  V30 18 N 0.810456 -1.053514 0.597634 0
M  V30 19 C -3.228657 -0.765772 1.636600 0
M  V30 20 C -3.666033 0.276709 2.432326 0
M  V30 21 C -5.005905 0.581772 2.399530 0
M  V30 22 C -5.890635 -0.097258 1.624763 0
M  V30 23 F -7.197475 0.251229 1.636540 0
M  V30 24 C -5.491390 -1.145219 0.815747 0
M  V30 25 C -4.146368 -1.440311 0.858105 0
M  V30 26 C -1.162672 -4.520442 -0.012408 0
M  V30 27 C 0.098126 -5.073106 -0.253699 0
M  V30 28 C 0.485315 -5.682130 -1.445093 0
M  V30 29 C -0.446073 -5.743161 -2.460675 0
M  V30 30 C -1.711348 -5.204804 -2.259895 0
M  V30 31 C -2.038389 -4.618773 -1.071239 0
M  V30 32 H -1.244207 0.987062 2.070693 0
M  V30 33 H 0.800213 2.096957 1.600483 0
M  V30 34 H 4.692993 2.793790 -0.874618 0
M  V30 35 H 4.916720 1.149946 -0.203841 0
M  V30 36 H 5.656885 1.874204 1.883323 0
M  V30 37 H 6.639534 2.747983 0.683694 0
M  V30 38 H 4.194692 5.029295 0.361853 0
M  V30 39 H 3.775891 5.185234 2.073329 0
M  V30 40 H 2.158847 3.944611 0.508399 0
M  V30 41 H 2.412212 3.345662 2.195881 0
M  V30 42 H 2.478498 -2.005856 -0.380291 0
M  V30 43 H -3.012530 0.852099 3.068246 0
M  V30 44 H -5.358499 1.406826 3.027679 0
M  V30 45 H -6.196010 -1.668481 0.213735 0
M  V30 46 H -3.847223 -2.257801 0.217229 0
M  V30 47 H 0.831204 -5.025607 0.544011 0
M  V30 48 H 1.502285 -6.076659 -1.508373 0
M  V30 49 H -0.124784 -6.218520 -3.372910 0
M  V30 50 H -2.415401 -5.263200 -3.058216 0
M  V30 51 H -3.017314 -4.196616 -0.897309 0
M  V30 END ATOM
M  V30 BEGIN BOND
M  V30 1 2 1 2
M  V30 2 2 2 3
M  V30 3 1 2 4
M  V30 4 2 4 5 CFG=2
M  V30 5 1 5 6
M  V30 6 1 6 7
M  V30 7 2 7 8
M  V30 8 1 8 9
M  V30 9 1 9 10
M  V30 10 1 10 11
M  V30 11 1 11 12
M  V30 12 1 12 13
M  V30 13 1 13 14
M  V30 14 1 14 15
M  V30 15 2 9 16
M  V30 16 1 16 17
M  V30 17 2 17 18
M  V30 18 1 5 19
M  V30 19 2 19 20
M  V30 20 1 20 21
M  V30 21 2 21 22
M  V30 22 1 22 23
M  V30 23 1 22 24
M  V30 24 2 24 25
M  V30 25 1 2 26
M  V30 26 2 26 27
M  V30 27 1 27 28
M  V30 28 2 28 29
M  V30 29 1 29 30
M  V30 30 2 30 31
M  V30 31 1 18 7
M  V30 32 1 25 19
M  V30 33 1 31 26
M  V30 34 1 15 10
M  V30 35 1 6 32
M  V30 36 1 8 33
M  V30 37 1 11 34
M  V30 38 1 11 35
M  V30 39 1 12 36
M  V30 40 1 12 37
M  V30 41 1 14 38
M  V30 42 1 14 39
M  V30 43 1 15 40
M  V30 44 1 15 41
M  V30 45 1 17 42
M  V30 46 1 20 43
M  V30 47 1 21 44
M  V30 48 1 24 45
M  V30 49 1 25 46
M  V30 50 1 27 47
M  V30 51 1 28 48
M  V30 52 1 29 49
M  V30 53 1 30 50
M  V30 54 1 31 51
M  V30 END BOND
M  V30 END CTAB
M  END
>  <Dataset>  (350) 
ChEMBL_Kinases

>  <Ligand_Instance>  (350) 
nan

>  <PDB_ID>  (350) 
nan

>  <Standardized_SMILES>  (350) 
O=S(=O)(N=C(Nc1cc(N2CCOCC2)ncn1)c1ccc(F)cc1)c1ccccc1

>  <Name>  (350) 
nan

>  <Pocket>  (350) 
nan

>  <ATP_Site>  (350) 
nan

>  <Peripheral>  (350) 
nan

>  <Num_H_Atoms_ProtBoundConf>  (350) 
nan

>  <Num_Resolved_Atoms>  (350) 
nan

>  <Num_Not_Resolved_Atoms>  (350) 
nan

$$$$
CHEMBL1443976
     RDKit          3D

  0  0  0  0  0  0  0  0  0  0999 V3000
M  V30 BEGIN CTAB
M  V30 COUNTS 39 42 0 0 0
M  V30 BEGIN ATOM
M  V30 1 C 1.837512 -3.888870 4.014963 0
M  V30 2 C 2.186493 -2.431617 3.894081 0
M  V30 3 C 1.337437 -1.896913 2.736295 0
M  V30 4 N 1.617656 -1.824162 1.412206 0
M  V30 5 C 0.769768 -1.326578 0.380085 0
M  V30 6 N 1.801791 -1.625852 -0.506910 0
M  V30 7 C 1.509972 -1.221538 -1.874074 0
M  V30 8 C 1.611722 0.274173 -1.999028 0
M  V30 9 C 0.653654 1.268482 -1.947164 0
M  V30 10 C 1.133637 2.549967 -2.082235 0
M  V30 11 C 2.440496 2.911678 -2.258668 0
M  V30 12 C 3.351498 1.843297 -2.300992 0
M  V30 13 N 2.886049 0.602883 -2.169407 0
M  V30 14 C -0.205808 -1.043696 1.218683 0
M  V30 15 O -1.066057 -0.560298 0.271990 0
M  V30 16 C -2.188800 -0.178396 0.816449 0
M  V30 17 C -3.408027 0.371702 0.434984 0
M  V30 18 C -4.335703 0.610321 1.426331 0
M  V30 19 C -4.140355 0.343469 2.761317 0
M  V30 20 C -2.921897 -0.211118 3.176640 0
M  V30 21 C -2.020124 -0.434184 2.151756 0
M  V30 22 C -0.788380 -0.973017 2.408042 0
M  V30 23 N 0.135793 -1.471512 3.230279 0
M  V30 24 H 0.864333 -4.140970 3.533439 0
M  V30 25 H 1.754947 -4.207976 5.084751 0
M  V30 26 H 2.573585 -4.551384 3.510245 0
M  V30 27 H 3.226668 -2.329081 3.534984 0
M  V30 28 H 1.976372 -1.907166 4.811687 0
M  V30 29 H 2.706601 -2.005134 -0.655589 0
M  V30 30 H 2.084845 -1.746955 -2.631366 0
M  V30 31 H 0.416280 -1.482943 -2.098124 0
M  V30 32 H -0.333599 0.916416 -1.817835 0
M  V30 33 H 0.375282 3.333668 -2.040176 0
M  V30 34 H 2.771907 3.920869 -2.358907 0
M  V30 35 H 4.390053 2.149638 -2.443500 0
M  V30 36 H -3.512805 0.560406 -0.615060 0
M  V30 37 H -5.263540 1.040134 1.024955 0
M  V30 38 H -4.921935 0.561787 3.484800 0
M  V30 39 H -2.720357 -0.440338 4.226187 0
M  V30 END ATOM
M  V30 BEGIN BOND
M  V30 1 1 1 2
M  V30 2 1 2 3
M  V30 3 2 3 4
M  V30 4 1 4 5
M  V30 5 1 5 6
M  V30 6 1 6 7
M  V30 7 1 7 8
M  V30 8 2 8 9
M  V30 9 1 9 10
M  V30 10 2 10 11
M  V30 11 1 11 12
M  V30 12 2 12 13
M  V30 13 2 5 14
M  V30 14 1 14 15
M  V30 15 1 15 16
M  V30 16 2 16 17
M  V30 17 1 17 18
M  V30 18 2 18 19
M  V30 19 1 19 20
M  V30 20 2 20 21
M  V30 21 1 21 22
M  V30 22 2 22 23
M  V30 23 1 23 3
M  V30 24 1 13 8
M  V30 25 1 22 14
M  V30 26 1 21 16
M  V30 27 1 1 24
M  V30 28 1 1 25
M  V30 29 1 1 26
M  V30 30 1 2 27
M  V30 31 1 2 28
M  V30 32 1 6 29
M  V30 33 1 7 30
M  V30 34 1 7 31
M  V30 35 1 9 32
M  V30 36 1 10 33
M  V30 37 1 11 34
M  V30 38 1 12 35
M  V30 39 1 17 36
M  V30 40 1 18 37
M  V30 41 1 19 38
M  V30 42 1 20 39
M  V30 END BOND
M  V30 END CTAB
M  END
>  <Dataset>  (351) 
ChEMBL_Kinases

>  <Ligand_Instance>  (351) 
nan

>  <PDB_ID>  (351) 
nan

>  <Standardized_SMILES>  (351) 
CCc1nc(NCc2ccccn2)c2oc3ccccc3c2n1

>  <Name>  (351) 
nan

>  <Pocket>  (351) 
nan

>  <ATP_Site>  (351) 
nan

>  <Peripheral>  (351) 
nan

>  <Num_H_Atoms_ProtBoundConf>  (351) 
nan

>  <Num_Resolved_Atoms>  (351) 
nan

>  <Num_Not_Resolved_Atoms>  (351) 
nan

$$$$
CHEMBL1443854
     RDKit          3D

  0  0  0  0  0  0  0  0  0  0999 V3000
M  V30 BEGIN CTAB
M  V30 COUNTS 57 59 0 0 0
M  V30 BEGIN ATOM
M  V30 1 C -0.350405 -6.520716 1.903110 0
M  V30 2 C 0.571044 -5.609294 1.175346 0
M  V30 3 C 0.421289 -4.262426 1.432614 0
M  V30 4 C 1.236162 -3.339688 0.800228 0
M  V30 5 C 2.221839 -3.734838 -0.105268 0
M  V30 6 O 3.072888 -2.906760 -0.778292 0
M  V30 7 C 3.114015 -1.495312 -0.682985 0
M  V30 8 C 1.872502 -0.854543 -1.082347 0
M  V30 9 O 2.119538 0.360886 -0.901786 0
M  V30 10 N 0.787702 -0.004952 -1.409480 0
M  V30 11 C 0.626767 1.407199 -1.345817 0
M  V30 12 C 0.076221 1.927595 -0.073432 0
M  V30 13 C 0.816644 2.292854 1.031222 0
M  V30 14 C 0.295359 2.782649 2.209779 0
M  V30 15 C -1.070876 2.930897 2.324323 0
M  V30 16 N -1.611942 3.435464 3.539075 0
M  V30 17 C -0.706080 3.778775 4.619502 0
M  V30 18 C -3.041644 3.611485 3.716470 0
M  V30 19 C -1.884675 2.588850 1.264637 0
M  V30 20 C -1.287694 2.105362 0.117702 0
M  V30 21 C -0.014772 -1.086578 -1.828500 0
M  V30 22 C -1.299816 -1.315497 -1.119488 0
M  V30 23 C -2.067627 -2.369431 -1.880121 0
M  V30 24 S -1.407162 -2.326198 -3.532036 0
M  V30 25 O -0.612361 -3.556248 -3.833450 0
M  V30 26 O -2.456623 -2.051633 -4.552759 0
M  V30 27 C -0.306179 -0.943412 -3.305535 0
M  V30 28 C 2.357772 -5.085699 -0.350744 0
M  V30 29 C 1.540812 -6.016165 0.282754 0
M  V30 30 H -0.541779 -6.150994 2.947842 0
M  V30 31 H -1.344745 -6.572228 1.417873 0
M  V30 32 H 0.079111 -7.535499 2.048519 0
M  V30 33 H -0.303113 -3.850377 2.109418 0
M  V30 34 H 1.161427 -2.282855 0.964261 0
M  V30 35 H 3.470956 -1.222113 0.332687 0
M  V30 36 H 3.933076 -1.193920 -1.399974 0
M  V30 37 H 1.580905 1.984140 -1.534549 0
M  V30 38 H -0.037271 1.791546 -2.162153 0
M  V30 39 H 1.883642 2.214946 1.025404 0
M  V30 40 H 0.916462 3.054542 3.046954 0
M  V30 41 H 0.039585 4.501230 4.226853 0
M  V30 42 H -0.197483 2.827714 4.920886 0
M  V30 43 H -1.278635 4.175901 5.472179 0
M  V30 44 H -3.302584 3.607815 4.808219 0
M  V30 45 H -3.654965 2.821499 3.271118 0
M  V30 46 H -3.350049 4.617782 3.356282 0
M  V30 47 H -2.952457 2.708045 1.362668 0
M  V30 48 H -1.996179 1.869081 -0.663227 0
M  V30 49 H 0.586058 -2.027971 -1.712728 0
M  V30 50 H -1.969672 -0.470712 -1.001933 0
M  V30 51 H -1.076041 -1.763422 -0.127553 0
M  V30 52 H -3.165259 -2.205460 -1.867120 0
M  V30 53 H -1.881694 -3.387945 -1.483118 0
M  V30 54 H 0.628623 -1.097321 -3.877490 0
M  V30 55 H -0.839347 -0.009395 -3.539974 0
M  V30 56 H 3.060227 -5.566880 -1.014634 0
M  V30 57 H 1.600516 -7.093525 0.129660 0
M  V30 END ATOM
M  V30 BEGIN BOND
M  V30 1 1 1 2
M  V30 2 2 2 3
M  V30 3 1 3 4
M  V30 4 2 4 5
M  V30 5 1 5 6
M  V30 6 1 6 7
M  V30 7 1 7 8
M  V30 8 2 8 9
M  V30 9 1 8 10
M  V30 10 1 10 11
M  V30 11 1 11 12
M  V30 12 2 12 13
M  V30 13 1 13 14
M  V30 14 2 14 15
M  V30 15 1 15 16
M  V30 16 1 16 17
M  V30 17 1 16 18
M  V30 18 1 15 19
M  V30 19 2 19 20
M  V30 20 1 10 21
M  V30 21 1 21 22
M  V30 22 1 22 23
M  V30 23 1 23 24
M  V30 24 2 24 25
M  V30 25 2 24 26
M  V30 26 1 24 27
M  V30 27 1 5 28
M  V30 28 2 28 29
M  V30 29 1 29 2
M  V30 30 1 20 12
M  V30 31 1 27 21
M  V30 32 1 1 30
M  V30 33 1 1 31
M  V30 34 1 1 32
M  V30 35 1 3 33
M  V30 36 1 4 34
M  V30 37 1 7 35
M  V30 38 1 7 36
M  V30 39 1 11 37
M  V30 40 1 11 38
M  V30 41 1 13 39
M  V30 42 1 14 40
M  V30 43 1 17 41
M  V30 44 1 17 42
M  V30 45 1 17 43
M  V30 46 1 18 44
M  V30 47 1 18 45
M  V30 48 1 18 46
M  V30 49 1 19 47
M  V30 50 1 20 48
M  V30 51 1 21 49
M  V30 52 1 22 50
M  V30 53 1 22 51
M  V30 54 1 23 52
M  V30 55 1 23 53
M  V30 56 1 27 54
M  V30 57 1 27 55
M  V30 58 1 28 56
M  V30 59 1 29 57
M  V30 END BOND
M  V30 END CTAB
M  END
>  <Dataset>  (352) 
ChEMBL_Kinases

>  <Ligand_Instance>  (352) 
nan

>  <PDB_ID>  (352) 
nan

>  <Standardized_SMILES>  (352) 
Cc1ccc(OCC(=O)N(Cc2ccc(N(C)C)cc2)C2CCS(=O)(=O)C2)cc1

>  <Name>  (352) 
nan

>  <Pocket>  (352) 
nan

>  <ATP_Site>  (352) 
nan

>  <Peripheral>  (352) 
nan

>  <Num_H_Atoms_ProtBoundConf>  (352) 
nan

>  <Num_Resolved_Atoms>  (352) 
nan

>  <Num_Not_Resolved_Atoms>  (352) 
nan

$$$$
CHEMBL1443737
     RDKit          3D

  0  0  0  0  0  0  0  0  0  0999 V3000
M  V30 BEGIN CTAB
M  V30 COUNTS 45 47 0 0 0
M  V30 BEGIN ATOM
M  V30 1 O 0.381178 -3.208610 2.849560 0
M  V30 2 C -0.272722 -2.365932 2.163799 0
M  V30 3 N -1.015636 -2.744441 1.016454 0
M  V30 4 C -1.108108 -4.107809 0.514818 0
M  V30 5 C 0.124484 -4.496080 -0.206229 0
M  V30 6 C 0.066616 -4.185230 -1.566701 0
M  V30 7 C 1.132382 -4.478677 -2.415615 0
M  V30 8 C 2.282696 -5.086329 -1.943515 0
M  V30 9 C 2.294232 -5.370539 -0.612563 0
M  V30 10 C 1.258258 -5.094050 0.254357 0
M  V30 11 C -0.211348 -0.988950 2.633007 0
M  V30 12 C 0.523685 -0.693403 3.788078 0
M  V30 13 C 0.573358 0.612457 4.233603 0
M  V30 14 C -0.062873 1.663588 3.606956 0
M  V30 15 C -0.796553 1.384692 2.457799 0
M  V30 16 S -1.645516 2.646780 1.594223 0
M  V30 17 O -2.295332 3.620409 2.526598 0
M  V30 18 O -2.753634 1.969451 0.822803 0
M  V30 19 N -0.678225 3.451432 0.442311 0
M  V30 20 C 0.450953 4.128102 0.984601 0
M  V30 21 C 1.709771 3.333749 0.896398 0
M  V30 22 O 1.927024 3.051977 -0.463592 0
M  V30 23 C 0.944155 2.163686 -0.884519 0
M  V30 24 C -0.441084 2.727746 -0.765439 0
M  V30 25 C -0.837610 0.076566 2.024105 0
M  V30 26 H -1.543587 -2.033109 0.469618 0
M  V30 27 H -2.016126 -4.265084 -0.104262 0
M  V30 28 H -1.229830 -4.780880 1.395686 0
M  V30 29 H -0.771380 -3.711629 -2.056676 0
M  V30 30 H 1.083838 -4.232729 -3.485637 0
M  V30 31 H 3.140331 -5.340945 -2.538304 0
M  V30 32 H 3.184564 -5.853943 -0.189243 0
M  V30 33 H 1.239866 -5.309012 1.312677 0
M  V30 34 H 1.057920 -1.467009 4.346762 0
M  V30 35 H 1.152340 0.805855 5.132142 0
M  V30 36 H -0.010189 2.680004 3.973583 0
M  V30 37 H 0.201948 4.457432 2.021083 0
M  V30 38 H 0.597758 5.067938 0.385389 0
M  V30 39 H 1.693972 2.372975 1.414321 0
M  V30 40 H 2.580020 3.902109 1.285363 0
M  V30 41 H 1.043332 1.204800 -0.333628 0
M  V30 42 H 1.134845 1.947710 -1.954451 0
M  V30 43 H -1.157697 1.883046 -0.814816 0
M  V30 44 H -0.689186 3.398271 -1.621153 0
M  V30 45 H -1.414059 -0.109392 1.130395 0
M  V30 END ATOM
M  V30 BEGIN BOND
M  V30 1 2 1 2
M  V30 2 1 2 3
M  V30 3 1 3 4
M  V30 4 1 4 5
M  V30 5 2 5 6
M  V30 6 1 6 7
M  V30 7 2 7 8
M  V30 8 1 8 9
M  V30 9 2 9 10
M  V30 10 1 2 11
M  V30 11 2 11 12
M  V30 12 1 12 13
M  V30 13 2 13 14
M  V30 14 1 14 15
M  V30 15 1 15 16
M  V30 16 2 16 17
M  V30 17 2 16 18
M  V30 18 1 16 19
M  V30 19 1 19 20
M  V30 20 1 20 21
M  V30 21 1 21 22
M  V30 22 1 22 23
M  V30 23 1 23 24
M  V30 24 2 15 25
M  V30 25 1 10 5
M  V30 26 1 25 11
M  V30 27 1 24 19
M  V30 28 1 3 26
M  V30 29 1 4 27
M  V30 30 1 4 28
M  V30 31 1 6 29
M  V30 32 1 7 30
M  V30 33 1 8 31
M  V30 34 1 9 32
M  V30 35 1 10 33
M  V30 36 1 12 34
M  V30 37 1 13 35
M  V30 38 1 14 36
M  V30 39 1 20 37
M  V30 40 1 20 38
M  V30 41 1 21 39
M  V30 42 1 21 40
M  V30 43 1 23 41
M  V30 44 1 23 42
M  V30 45 1 24 43
M  V30 46 1 24 44
M  V30 47 1 25 45
M  V30 END BOND
M  V30 END CTAB
M  END
>  <Dataset>  (353) 
ChEMBL_Kinases

>  <Ligand_Instance>  (353) 
nan

>  <PDB_ID>  (353) 
nan

>  <Standardized_SMILES>  (353) 
O=C(NCc1ccccc1)c1cccc(S(=O)(=O)N2CCOCC2)c1

>  <Name>  (353) 
nan

>  <Pocket>  (353) 
nan

>  <ATP_Site>  (353) 
nan

>  <Peripheral>  (353) 
nan

>  <Num_H_Atoms_ProtBoundConf>  (353) 
nan

>  <Num_Resolved_Atoms>  (353) 
nan

>  <Num_Not_Resolved_Atoms>  (353) 
nan

$$$$
CHEMBL1443688
     RDKit          3D

  0  0  0  0  0  0  0  0  0  0999 V3000
M  V30 BEGIN CTAB
M  V30 COUNTS 53 56 0 0 0
M  V30 BEGIN ATOM
M  V30 1 C 4.772523 -1.809465 -0.338210 0
M  V30 2 O 4.279476 -0.553292 0.083302 0
M  V30 3 C 3.825362 -0.342503 1.391419 0
M  V30 4 C 3.825320 -1.328213 2.352777 0
M  V30 5 C 3.356944 -1.016014 3.607880 0
M  V30 6 C 2.879890 0.216254 3.994190 0
M  V30 7 C 2.883125 1.198724 3.024916 0
M  V30 8 C 3.351053 0.896833 1.762045 0
M  V30 9 N 3.289330 2.001598 0.867882 0
M  V30 10 C 2.032656 1.878441 0.251200 0
M  V30 11 O 0.999388 1.140231 0.237671 0
M  V30 12 C 1.166173 2.568027 -0.774327 0
M  V30 13 N -0.044876 1.734030 -0.859494 0
M  V30 14 C -1.187967 1.803461 -0.174540 0
M  V30 15 O -1.488331 2.727397 0.803946 0
M  V30 16 C -1.985146 0.780552 -0.641201 0
M  V30 17 N -3.322044 0.439705 -0.208944 0
M  V30 18 N -3.505706 -0.482134 0.635313 0
M  V30 19 C -4.772924 -0.889261 1.119307 0
M  V30 20 O -5.942457 -0.422086 1.099496 0
M  V30 21 C -4.467439 -2.164312 1.762367 0
M  V30 22 C -4.692657 -2.321531 3.119757 0
M  V30 23 C -4.435669 -3.485638 3.808507 0
M  V30 24 C -3.922183 -4.577679 3.131938 0
M  V30 25 C -3.681583 -4.465210 1.775376 0
M  V30 26 C -3.949803 -3.284555 1.112144 0
M  V30 27 O -3.713235 -3.150048 -0.260287 0
M  V30 28 C -1.335708 0.066648 -1.624872 0
M  V30 29 C -1.622302 -1.019858 -2.424269 0
M  V30 30 C -0.729465 -1.524188 -3.354212 0
M  V30 31 C 0.494825 -0.893789 -3.466853 0
M  V30 32 C 0.776756 0.187880 -2.669324 0
M  V30 33 C -0.130636 0.691761 -1.731717 0
M  V30 34 H 3.928819 -2.553908 -0.279474 0
M  V30 35 H 5.603574 -2.079376 0.343158 0
M  V30 36 H 5.059385 -1.712623 -1.399269 0
M  V30 37 H 4.188526 -2.320241 2.108069 0
M  V30 38 H 3.374219 -1.822412 4.338334 0
M  V30 39 H 2.541375 0.323602 5.016747 0
M  V30 40 H 2.507969 2.169776 3.325212 0
M  V30 41 H 3.675884 2.858272 0.421588 0
M  V30 42 H 0.931847 3.597728 -0.522276 0
M  V30 43 H 1.691675 2.553657 -1.725994 0
M  V30 44 H -0.886771 3.025081 1.550363 0
M  V30 45 H -5.095558 -1.517197 3.740490 0
M  V30 46 H -4.615736 -3.598727 4.871265 0
M  V30 47 H -3.684006 -5.534327 3.567191 0
M  V30 48 H -3.279166 -5.261817 1.146402 0
M  V30 49 H -2.759765 -3.277139 -0.601363 0
M  V30 50 H -2.614700 -1.475152 -2.284308 0
M  V30 51 H -0.958780 -2.362805 -3.966787 0
M  V30 52 H 1.219441 -1.270461 -4.191907 0
M  V30 53 H 1.755146 0.642317 -2.803023 0
M  V30 END ATOM
M  V30 BEGIN BOND
M  V30 1 1 1 2
M  V30 2 1 2 3
M  V30 3 2 3 4
M  V30 4 1 4 5
M  V30 5 2 5 6
M  V30 6 1 6 7
M  V30 7 2 7 8
M  V30 8 1 8 9
M  V30 9 1 9 10
M  V30 10 2 10 11
M  V30 11 1 10 12
M  V30 12 1 12 13
M  V30 13 1 13 14
M  V30 14 1 14 15
M  V30 15 2 14 16
M  V30 16 1 16 17
M  V30 17 2 17 18 CFG=2
M  V30 18 1 18 19
M  V30 19 2 19 20
M  V30 20 1 19 21
M  V30 21 2 21 22
M  V30 22 1 22 23
M  V30 23 2 23 24
M  V30 24 1 24 25
M  V30 25 2 25 26
M  V30 26 1 26 27
M  V30 27 1 16 28
M  V30 28 2 28 29
M  V30 29 1 29 30
M  V30 30 2 30 31
M  V30 31 1 31 32
M  V30 32 2 32 33
M  V30 33 1 8 3
M  V30 34 1 33 13
M  V30 35 1 26 21
M  V30 36 1 33 28
M  V30 37 1 1 34
M  V30 38 1 1 35
M  V30 39 1 1 36
M  V30 40 1 4 37
M  V30 41 1 5 38
M  V30 42 1 6 39
M  V30 43 1 7 40
M  V30 44 1 9 41
M  V30 45 1 12 42
M  V30 46 1 12 43
M  V30 47 1 15 44
M  V30 48 1 22 45
M  V30 49 1 23 46
M  V30 50 1 24 47
M  V30 51 1 25 48
M  V30 52 1 27 49
M  V30 53 1 29 50
M  V30 54 1 30 51
M  V30 55 1 31 52
M  V30 56 1 32 53
M  V30 END BOND
M  V30 END CTAB
M  END
>  <Dataset>  (354) 
ChEMBL_Kinases

>  <Ligand_Instance>  (354) 
nan

>  <PDB_ID>  (354) 
nan

>  <Standardized_SMILES>  (354) 
COc1ccccc1NC(=O)Cn1c(O)c(N=NC(=O)c2ccccc2O)c2ccccc21

>  <Name>  (354) 
nan

>  <Pocket>  (354) 
nan

>  <ATP_Site>  (354) 
nan

>  <Peripheral>  (354) 
nan

>  <Num_H_Atoms_ProtBoundConf>  (354) 
nan

>  <Num_Resolved_Atoms>  (354) 
nan

>  <Num_Not_Resolved_Atoms>  (354) 
nan

$$$$
CHEMBL1443566
     RDKit          3D

  0  0  0  0  0  0  0  0  0  0999 V3000
M  V30 BEGIN CTAB
M  V30 COUNTS 38 39 0 0 0
M  V30 BEGIN ATOM
M  V30 1 C -1.133095 -6.017157 2.666350 0
M  V30 2 S -1.244729 -4.311955 3.260850 0
M  V30 3 C 0.124953 -3.349773 2.651950 0
M  V30 4 C 1.076337 -3.924711 1.849425 0
M  V30 5 C 2.152404 -3.183010 1.366660 0
M  V30 6 C 2.184625 -1.860924 1.749020 0
M  V30 7 S 3.488568 -0.821947 1.206880 0
M  V30 8 O 4.718182 -1.659933 0.985484 0
M  V30 9 O 3.806257 0.190774 2.252472 0
M  V30 10 N 3.049799 -0.072108 -0.297560 0
M  V30 11 C 1.947755 0.782929 -0.429942 0
M  V30 12 C 1.110687 0.607737 -1.522823 0
M  V30 13 C -0.016137 1.388052 -1.771247 0
M  V30 14 C -0.289831 2.392561 -0.850893 0
M  V30 15 N -1.453821 3.162017 -1.151540 0
M  V30 16 C -2.615440 2.583647 -0.550377 0
M  V30 17 C -3.999556 3.147639 -0.672938 0
M  V30 18 O -2.531002 1.544059 0.129983 0
M  V30 19 C 0.530997 2.583551 0.243886 0
M  V30 20 C 1.635892 1.794862 0.459126 0
M  V30 21 C 1.245841 -1.245301 2.555659 0
M  V30 22 C 0.182015 -2.020220 3.020218 0
M  V30 23 H -1.021834 -6.074868 1.556127 0
M  V30 24 H -0.343607 -6.563314 3.207476 0
M  V30 25 H -2.095557 -6.528161 2.894385 0
M  V30 26 H 1.051461 -4.963499 1.548721 0
M  V30 27 H 2.938931 -3.561259 0.732826 0
M  V30 28 H 3.613781 -0.241237 -1.181698 0
M  V30 29 H 1.326206 -0.183151 -2.247429 0
M  V30 30 H -0.612542 1.194157 -2.633057 0
M  V30 31 H -1.622947 4.040379 -1.708366 0
M  V30 32 H -4.655678 2.294250 -0.932271 0
M  V30 33 H -4.063607 3.984365 -1.369857 0
M  V30 34 H -4.282249 3.498556 0.342229 0
M  V30 35 H 0.263047 3.369258 0.906989 0
M  V30 36 H 2.273616 1.951874 1.320085 0
M  V30 37 H 1.285940 -0.212450 2.844517 0
M  V30 38 H -0.550939 -1.536824 3.650861 0
M  V30 END ATOM
M  V30 BEGIN BOND
M  V30 1 1 1 2
M  V30 2 1 2 3
M  V30 3 2 3 4
M  V30 4 1 4 5
M  V30 5 2 5 6
M  V30 6 1 6 7
M  V30 7 2 7 8
M  V30 8 2 7 9
M  V30 9 1 7 10
M  V30 10 1 10 11
M  V30 11 2 11 12
M  V30 12 1 12 13
M  V30 13 2 13 14
M  V30 14 1 14 15
M  V30 15 1 15 16
M  V30 16 1 16 17
M  V30 17 2 16 18
M  V30 18 1 14 19
M  V30 19 2 19 20
M  V30 20 1 6 21
M  V30 21 2 21 22
M  V30 22 1 22 3
M  V30 23 1 20 11
M  V30 24 1 1 23
M  V30 25 1 1 24
M  V30 26 1 1 25
M  V30 27 1 4 26
M  V30 28 1 5 27
M  V30 29 1 10 28
M  V30 30 1 12 29
M  V30 31 1 13 30
M  V30 32 1 15 31
M  V30 33 1 17 32
M  V30 34 1 17 33
M  V30 35 1 17 34
M  V30 36 1 19 35
M  V30 37 1 20 36
M  V30 38 1 21 37
M  V30 39 1 22 38
M  V30 END BOND
M  V30 END CTAB
M  END
>  <Dataset>  (355) 
ChEMBL_Kinases

>  <Ligand_Instance>  (355) 
nan

>  <PDB_ID>  (355) 
nan

>  <Standardized_SMILES>  (355) 
CSc1ccc(S(=O)(=O)Nc2ccc(NC(C)=O)cc2)cc1

>  <Name>  (355) 
nan

>  <Pocket>  (355) 
nan

>  <ATP_Site>  (355) 
nan

>  <Peripheral>  (355) 
nan

>  <Num_H_Atoms_ProtBoundConf>  (355) 
nan

>  <Num_Resolved_Atoms>  (355) 
nan

>  <Num_Not_Resolved_Atoms>  (355) 
nan

$$$$
CHEMBL1443317
     RDKit          3D

  0  0  0  0  0  0  0  0  0  0999 V3000
M  V30 BEGIN CTAB
M  V30 COUNTS 38 41 0 0 0
M  V30 BEGIN ATOM
M  V30 1 C -1.022758 -2.986200 -0.874745 0
M  V30 2 C 0.432005 -2.914034 -0.525233 0
M  V30 3 C 1.201134 -4.057236 -0.450871 0
M  V30 4 C 2.479746 -3.655011 -0.112002 0
M  V30 5 C 2.473697 -2.277316 0.015352 0
M  V30 6 C 3.536363 -1.292934 0.357759 0
M  V30 7 N 1.212332 -1.857671 -0.242627 0
M  V30 8 N 0.638084 -0.582487 -0.258778 0
M  V30 9 C 0.804215 0.005150 -1.447337 0
M  V30 10 C 1.458476 -0.438590 -2.689251 0
M  V30 11 N 0.289663 1.235149 -1.572378 0
M  V30 12 C -0.355924 1.816164 -0.527385 0
M  V30 13 S -1.199521 3.470535 -0.377488 0
M  V30 14 C -1.695575 3.163464 1.345220 0
M  V30 15 C -1.224310 1.909161 1.687203 0
M  V30 16 C -1.615142 1.633601 3.058697 0
M  V30 17 C -1.184342 0.733806 3.911047 0
M  V30 18 C -1.506265 0.501850 5.191847 0
M  V30 19 C -2.550601 1.519371 5.597186 0
M  V30 20 S -2.757339 2.519676 3.985482 0
M  V30 21 C -0.554133 1.261843 0.711270 0
M  V30 22 C -0.000322 0.015785 0.744970 0
M  V30 23 O -0.005164 -0.761344 1.715223 0
M  V30 24 H -1.612587 -3.338800 0.010965 0
M  V30 25 H -1.414518 -2.010403 -1.187495 0
M  V30 26 H -1.193667 -3.722960 -1.691044 0
M  V30 27 H 0.919376 -5.071957 -0.612119 0
M  V30 28 H 3.396066 -4.223407 0.050774 0
M  V30 29 H 4.525162 -1.822932 0.421141 0
M  V30 30 H 3.372475 -0.812402 1.351009 0
M  V30 31 H 3.560058 -0.454435 -0.388308 0
M  V30 32 H 2.349989 0.158917 -2.975491 0
M  V30 33 H 1.748144 -1.512341 -2.643324 0
M  V30 34 H 0.700407 -0.329011 -3.519151 0
M  V30 35 H -2.223385 4.049037 1.630095 0
M  V30 36 H -0.472164 -0.066284 3.949852 0
M  V30 37 H -1.636957 0.180560 6.193189 0
M  V30 38 H -3.397996 2.192552 6.248927 0
M  V30 END ATOM
M  V30 BEGIN BOND
M  V30 1 1 1 2
M  V30 2 2 2 3
M  V30 3 1 3 4
M  V30 4 2 4 5
M  V30 5 1 5 6
M  V30 6 1 5 7
M  V30 7 1 7 8
M  V30 8 1 8 9
M  V30 9 1 9 10
M  V30 10 2 9 11
M  V30 11 1 11 12
M  V30 12 1 12 13
M  V30 13 1 13 14
M  V30 14 2 14 15
M  V30 15 1 15 16
M  V30 16 2 16 17
M  V30 17 1 17 18
M  V30 18 2 18 19
M  V30 19 1 19 20
M  V30 20 1 15 21
M  V30 21 1 21 22
M  V30 22 2 22 23
M  V30 23 1 7 2
M  V30 24 1 22 8
M  V30 25 2 21 12
M  V30 26 1 20 16
M  V30 27 1 1 24
M  V30 28 1 1 25
M  V30 29 1 1 26
M  V30 30 1 3 27
M  V30 31 1 4 28
M  V30 32 1 6 29
M  V30 33 1 6 30
M  V30 34 1 6 31
M  V30 35 1 10 32
M  V30 36 1 10 33
M  V30 37 1 10 34
M  V30 38 1 14 35
M  V30 39 1 17 36
M  V30 40 1 18 37
M  V30 41 1 19 38
M  V30 END BOND
M  V30 END CTAB
M  END
>  <Dataset>  (356) 
ChEMBL_Kinases

>  <Ligand_Instance>  (356) 
nan

>  <PDB_ID>  (356) 
nan

>  <Standardized_SMILES>  (356) 
Cc1ccc(C)n1-n1c(C)nc2scc(-c3cccs3)c2c1=O

>  <Name>  (356) 
nan

>  <Pocket>  (356) 
nan

>  <ATP_Site>  (356) 
nan

>  <Peripheral>  (356) 
nan

>  <Num_H_Atoms_ProtBoundConf>  (356) 
nan

>  <Num_Resolved_Atoms>  (356) 
nan

>  <Num_Not_Resolved_Atoms>  (356) 
nan

$$$$
CHEMBL1443270
     RDKit          3D

  0  0  0  0  0  0  0  0  0  0999 V3000
M  V30 BEGIN CTAB
M  V30 COUNTS 42 45 0 0 0
M  V30 BEGIN ATOM
M  V30 1 C 0.738580 -8.615471 0.421569 0
M  V30 2 C 1.320306 -7.335965 -0.122148 0
M  V30 3 C 0.800910 -6.045370 -0.228696 0
M  V30 4 C 1.811135 -5.275298 -0.819101 0
M  V30 5 N 1.456908 -3.908404 -1.007921 0
M  V30 6 C 0.841395 -3.190293 -2.071431 0
M  V30 7 O 0.481059 -3.746283 -3.132396 0
M  V30 8 C 0.737381 -1.789568 -1.676221 0
M  V30 9 C 0.221678 -0.669207 -2.330127 0
M  V30 10 C 0.253432 0.577155 -1.695096 0
M  V30 11 C 0.783120 0.733236 -0.431834 0
M  V30 12 C 0.773183 2.062119 0.157344 0
M  V30 13 O 0.247951 2.983585 -0.528510 0
M  V30 14 N 1.299832 2.407715 1.427055 0
M  V30 15 C 1.319137 3.689651 2.062931 0
M  V30 16 C -0.006280 4.069254 2.632759 0
M  V30 17 C -0.287065 3.689833 3.945734 0
M  V30 18 C -1.488248 3.978757 4.603534 0
M  V30 19 C -2.417272 4.682122 3.867591 0
M  V30 20 C -2.163783 5.068477 2.568879 0
M  V30 21 C -0.969366 4.772964 1.936283 0
M  V30 22 C 1.281455 -0.397552 0.178353 0
M  V30 23 C 1.272466 -1.647348 -0.407004 0
M  V30 24 C 1.734501 -2.975257 0.036511 0
M  V30 25 O 2.269070 -3.151365 1.160796 0
M  V30 26 N 2.859936 -6.113767 -1.033835 0
M  V30 27 O 2.532663 -7.312008 -0.611979 0
M  V30 28 H 1.545512 -9.147864 0.977483 0
M  V30 29 H -0.082111 -8.344726 1.149171 0
M  V30 30 H 0.282920 -9.235903 -0.367293 0
M  V30 31 H -0.208260 -5.924947 0.144674 0
M  V30 32 H -0.192102 -0.801377 -3.321395 0
M  V30 33 H -0.172032 1.368633 -2.294416 0
M  V30 34 H 1.720227 1.563888 1.921556 0
M  V30 35 H 1.694282 4.492685 1.372980 0
M  V30 36 H 2.034469 3.659772 2.907963 0
M  V30 37 H 0.488709 3.129344 4.491288 0
M  V30 38 H -1.589841 3.631181 5.624378 0
M  V30 39 H -3.346217 4.896602 4.398597 0
M  V30 40 H -2.943362 5.619577 2.051902 0
M  V30 41 H -0.767804 5.074788 0.921982 0
M  V30 42 H 1.696417 -0.315913 1.149805 0
M  V30 END ATOM
M  V30 BEGIN BOND
M  V30 1 1 1 2
M  V30 2 2 2 3
M  V30 3 1 3 4
M  V30 4 1 4 5
M  V30 5 1 5 6
M  V30 6 2 6 7
M  V30 7 1 6 8
M  V30 8 2 8 9
M  V30 9 1 9 10
M  V30 10 2 10 11
M  V30 11 1 11 12
M  V30 12 2 12 13
M  V30 13 1 12 14
M  V30 14 1 14 15
M  V30 15 1 15 16
M  V30 16 2 16 17
M  V30 17 1 17 18
M  V30 18 2 18 19
M  V30 19 1 19 20
M  V30 20 2 20 21
M  V30 21 1 11 22
M  V30 22 2 22 23
M  V30 23 1 23 24
M  V30 24 2 24 25
M  V30 25 2 4 26
M  V30 26 1 26 27
M  V30 27 1 27 2
M  V30 28 1 24 5
M  V30 29 1 23 8
M  V30 30 1 21 16
M  V30 31 1 1 28
M  V30 32 1 1 29
M  V30 33 1 1 30
M  V30 34 1 3 31
M  V30 35 1 9 32
M  V30 36 1 10 33
M  V30 37 1 14 34
M  V30 38 1 15 35
M  V30 39 1 15 36
M  V30 40 1 17 37
M  V30 41 1 18 38
M  V30 42 1 19 39
M  V30 43 1 20 40
M  V30 44 1 21 41
M  V30 45 1 22 42
M  V30 END BOND
M  V30 END CTAB
M  END
>  <Dataset>  (357) 
ChEMBL_Kinases

>  <Ligand_Instance>  (357) 
nan

>  <PDB_ID>  (357) 
nan

>  <Standardized_SMILES>  (357) 
Cc1cc(N2C(=O)c3ccc(C(=O)NCc4ccccc4)cc3C2=O)no1

>  <Name>  (357) 
nan

>  <Pocket>  (357) 
nan

>  <ATP_Site>  (357) 
nan

>  <Peripheral>  (357) 
nan

>  <Num_H_Atoms_ProtBoundConf>  (357) 
nan

>  <Num_Resolved_Atoms>  (357) 
nan

>  <Num_Not_Resolved_Atoms>  (357) 
nan

$$$$
CHEMBL1443054
     RDKit          3D

  0  0  0  0  0  0  0  0  0  0999 V3000
M  V30 BEGIN CTAB
M  V30 COUNTS 47 51 0 0 0
M  V30 BEGIN ATOM
M  V30 1 C 1.893133 -4.855785 -0.257949 0
M  V30 2 C 2.496105 -3.876251 0.704197 0
M  V30 3 N 1.993641 -2.510168 0.498687 0
M  V30 4 C 0.894477 -2.068131 1.149056 0
M  V30 5 O 0.409209 -2.926694 1.891063 0
M  V30 6 C 0.489792 -0.769895 0.898192 0
M  V30 7 C 1.192046 0.022898 0.018679 0
M  V30 8 N 2.245016 -0.481954 -0.569199 0
M  V30 9 C 3.132585 -0.036883 -1.436997 0
M  V30 10 N 4.078687 -0.924296 -1.776188 0
M  V30 11 N 3.807714 -2.048705 -1.085798 0
M  V30 12 C 2.679005 -1.734838 -0.360539 0
M  V30 13 C 0.796914 1.364808 -0.243775 0
M  V30 14 C 1.350266 2.251553 -1.066443 0
M  V30 15 C 0.955979 3.542993 -1.323670 0
M  V30 16 C -0.159009 4.009466 -0.654337 0
M  V30 17 C -0.806672 3.148037 0.231188 0
M  V30 18 C -0.293790 1.849542 0.398848 0
M  V30 19 C -1.088538 1.096540 1.367995 0
M  V30 20 C -0.714214 -0.327000 1.613833 0
M  V30 21 C -0.707361 -0.660601 3.098418 0
M  V30 22 C -1.908762 0.003439 3.777562 0
M  V30 23 C -3.178917 -0.344408 3.068997 0
M  V30 24 C -3.015021 -1.327362 1.965877 0
M  V30 25 C -1.880966 -1.149718 1.040300 0
M  V30 26 H 1.047050 -4.408259 -0.833338 0
M  V30 27 H 2.634066 -5.244207 -1.011159 0
M  V30 28 H 1.553262 -5.740820 0.313977 0
M  V30 29 H 2.353979 -4.173079 1.759378 0
M  V30 30 H 3.599175 -3.909600 0.529745 0
M  V30 31 H 3.360176 0.823321 -1.978449 0
M  V30 32 H 2.192968 2.025195 -1.632440 0
M  V30 33 H 1.418030 4.251272 -1.996347 0
M  V30 34 H -0.524078 5.016725 -0.809986 0
M  V30 35 H -1.672658 3.564539 0.727194 0
M  V30 36 H -2.174047 1.222978 1.080629 0
M  V30 37 H -1.022345 1.722512 2.309360 0
M  V30 38 H -0.994262 -1.748551 3.194855 0
M  V30 39 H 0.213966 -0.390580 3.608876 0
M  V30 40 H -1.759763 1.046325 4.034931 0
M  V30 41 H -1.950888 -0.503160 4.795281 0
M  V30 42 H -3.764111 0.561700 2.729279 0
M  V30 43 H -3.916508 -0.823943 3.783196 0
M  V30 44 H -3.066192 -2.369426 2.395712 0
M  V30 45 H -3.956389 -1.267631 1.344083 0
M  V30 46 H -1.457707 -2.136687 0.780251 0
M  V30 47 H -2.184957 -0.709480 0.048571 0
M  V30 END ATOM
M  V30 BEGIN BOND
M  V30 1 1 1 2
M  V30 2 1 2 3
M  V30 3 1 3 4
M  V30 4 2 4 5
M  V30 5 1 4 6
M  V30 6 2 6 7
M  V30 7 1 7 8
M  V30 8 1 8 9
M  V30 9 2 9 10
M  V30 10 1 10 11
M  V30 11 2 11 12
M  V30 12 1 7 13
M  V30 13 2 13 14
M  V30 14 1 14 15
M  V30 15 2 15 16
M  V30 16 1 16 17
M  V30 17 2 17 18
M  V30 18 1 18 19
M  V30 19 1 19 20
M  V30 20 1 20 21
M  V30 21 1 21 22
M  V30 22 1 22 23
M  V30 23 1 23 24
M  V30 24 1 24 25
M  V30 25 1 12 3
M  V30 26 1 18 13
M  V30 27 1 25 20
M  V30 28 1 20 6
M  V30 29 1 12 8
M  V30 30 1 1 26
M  V30 31 1 1 27
M  V30 32 1 1 28
M  V30 33 1 2 29
M  V30 34 1 2 30
M  V30 35 1 9 31
M  V30 36 1 14 32
M  V30 37 1 15 33
M  V30 38 1 16 34
M  V30 39 1 17 35
M  V30 40 1 19 36
M  V30 41 1 19 37
M  V30 42 1 21 38
M  V30 43 1 21 39
M  V30 44 1 22 40
M  V30 45 1 22 41
M  V30 46 1 23 42
M  V30 47 1 23 43
M  V30 48 1 24 44
M  V30 49 1 24 45
M  V30 50 1 25 46
M  V30 51 1 25 47
M  V30 END BOND
M  V30 END CTAB
M  END
>  <Dataset>  (358) 
ChEMBL_Kinases

>  <Ligand_Instance>  (358) 
nan

>  <PDB_ID>  (358) 
nan

>  <Standardized_SMILES>  (358) 
CCn1c(=O)c2c(n3cnnc13)-c1ccccc1CC21CCCCC1

>  <Name>  (358) 
nan

>  <Pocket>  (358) 
nan

>  <ATP_Site>  (358) 
nan

>  <Peripheral>  (358) 
nan

>  <Num_H_Atoms_ProtBoundConf>  (358) 
nan

>  <Num_Resolved_Atoms>  (358) 
nan

>  <Num_Not_Resolved_Atoms>  (358) 
nan

$$$$
CHEMBL1448229
     RDKit          3D

  0  0  0  0  0  0  0  0  0  0999 V3000
M  V30 BEGIN CTAB
M  V30 COUNTS 57 60 0 0 0
M  V30 BEGIN ATOM
M  V30 1 C 1.918442 -2.308735 6.920507 0
M  V30 2 C 3.221312 -2.649964 6.227567 0
M  V30 3 N 3.079342 -2.641666 4.786342 0
M  V30 4 C 3.255602 -1.622458 3.954692 0
M  V30 5 C 3.019362 -2.046449 2.681561 0
M  V30 6 C 3.051011 -1.394206 1.348752 0
M  V30 7 N 1.727905 -0.840503 1.049554 0
M  V30 8 C 1.846248 -0.223289 -0.272824 0
M  V30 9 C 0.601191 0.388477 -0.727974 0
M  V30 10 C 0.332884 1.742062 -0.745408 0
M  V30 11 N -0.918924 1.835300 -1.230717 0
M  V30 12 C -1.632988 3.053674 -1.431977 0
M  V30 13 C -1.602009 4.004319 -0.405626 0
M  V30 14 C -2.297790 5.193871 -0.598213 0
M  V30 15 C -3.011633 5.469257 -1.754310 0
M  V30 16 C -3.018600 4.507386 -2.743877 0
M  V30 17 C -2.343486 3.311861 -2.598674 0
M  V30 18 C -2.354147 2.266893 -3.679376 0
M  V30 19 N -1.404389 0.643111 -1.498686 0
M  V30 20 C -0.479136 -0.311287 -1.197855 0
M  V30 21 C -0.769028 -1.725024 -1.394653 0
M  V30 22 C -2.012963 -2.138336 -0.897757 0
M  V30 23 C -2.502730 -3.424659 -0.976850 0
M  V30 24 C -1.724990 -4.386958 -1.585720 0
M  V30 25 O -2.110222 -5.713747 -1.724463 0
M  V30 26 C -3.353061 -6.199206 -1.245473 0
M  V30 27 C -0.497326 -4.000567 -2.081392 0
M  V30 28 F 0.328667 -4.896073 -2.697030 0
M  V30 29 C -0.018198 -2.710182 -1.996542 0
M  V30 30 C 2.686877 -3.384342 2.767861 0
M  V30 31 N 2.735203 -3.709842 4.072293 0
M  V30 32 H 1.148520 -2.045194 6.140984 0
M  V30 33 H 1.492542 -3.192263 7.436757 0
M  V30 34 H 2.051497 -1.507850 7.654828 0
M  V30 35 H 3.530216 -3.667435 6.573084 0
M  V30 36 H 4.007371 -1.900547 6.524724 0
M  V30 37 H 3.534789 -0.613769 4.171867 0
M  V30 38 H 3.784591 -0.549278 1.387673 0
M  V30 39 H 3.409140 -2.080763 0.554370 0
M  V30 40 H 1.038373 -1.614015 0.928012 0
M  V30 41 H 2.680972 0.534748 -0.204167 0
M  V30 42 H 2.212053 -0.964548 -0.999265 0
M  V30 43 H 1.002069 2.540844 -0.431303 0
M  V30 44 H -1.051585 3.829610 0.523949 0
M  V30 45 H -2.241892 5.908341 0.238403 0
M  V30 46 H -3.543589 6.421483 -1.857703 0
M  V30 47 H -3.563711 4.680047 -3.665634 0
M  V30 48 H -2.939297 1.397637 -3.301068 0
M  V30 49 H -2.939763 2.669909 -4.533613 0
M  V30 50 H -1.338471 2.009241 -4.018330 0
M  V30 51 H -2.692197 -1.432333 -0.398245 0
M  V30 52 H -3.469241 -3.693917 -0.577664 0
M  V30 53 H -3.361784 -6.334415 -0.154713 0
M  V30 54 H -3.681399 -7.102028 -1.776969 0
M  V30 55 H -4.110044 -5.410156 -1.472499 0
M  V30 56 H 0.925386 -2.378920 -2.375675 0
M  V30 57 H 2.425041 -4.106896 1.999558 0
M  V30 END ATOM
M  V30 BEGIN BOND
M  V30 1 1 1 2
M  V30 2 1 2 3
M  V30 3 1 3 4
M  V30 4 2 4 5
M  V30 5 1 5 6
M  V30 6 1 6 7
M  V30 7 1 7 8
M  V30 8 1 8 9
M  V30 9 2 9 10
M  V30 10 1 10 11
M  V30 11 1 11 12
M  V30 12 2 12 13
M  V30 13 1 13 14
M  V30 14 2 14 15
M  V30 15 1 15 16
M  V30 16 2 16 17
M  V30 17 1 17 18
M  V30 18 1 11 19
M  V30 19 2 19 20
M  V30 20 1 20 21
M  V30 21 2 21 22
M  V30 22 1 22 23
M  V30 23 2 23 24
M  V30 24 1 24 25
M  V30 25 1 25 26
M  V30 26 1 24 27
M  V30 27 1 27 28
M  V30 28 2 27 29
M  V30 29 1 5 30
M  V30 30 2 30 31
M  V30 31 1 31 3
M  V30 32 1 20 9
M  V30 33 1 29 21
M  V30 34 1 17 12
M  V30 35 1 1 32
M  V30 36 1 1 33
M  V30 37 1 1 34
M  V30 38 1 2 35
M  V30 39 1 2 36
M  V30 40 1 4 37
M  V30 41 1 6 38
M  V30 42 1 6 39
M  V30 43 1 7 40
M  V30 44 1 8 41
M  V30 45 1 8 42
M  V30 46 1 10 43
M  V30 47 1 13 44
M  V30 48 1 14 45
M  V30 49 1 15 46
M  V30 50 1 16 47
M  V30 51 1 18 48
M  V30 52 1 18 49
M  V30 53 1 18 50
M  V30 54 1 22 51
M  V30 55 1 23 52
M  V30 56 1 26 53
M  V30 57 1 26 54
M  V30 58 1 26 55
M  V30 59 1 29 56
M  V30 60 1 30 57
M  V30 END BOND
M  V30 END CTAB
M  END
>  <Dataset>  (359) 
ChEMBL_Kinases

>  <Ligand_Instance>  (359) 
nan

>  <PDB_ID>  (359) 
nan

>  <Standardized_SMILES>  (359) 
CCn1cc(CNCc2cn(-c3ccccc3C)nc2-c2ccc(OC)c(F)c2)cn1

>  <Name>  (359) 
nan

>  <Pocket>  (359) 
nan

>  <ATP_Site>  (359) 
nan

>  <Peripheral>  (359) 
nan

>  <Num_H_Atoms_ProtBoundConf>  (359) 
nan

>  <Num_Resolved_Atoms>  (359) 
nan

>  <Num_Not_Resolved_Atoms>  (359) 
nan

$$$$
CHEMBL1441956
     RDKit          3D

  0  0  0  0  0  0  0  0  0  0999 V3000
M  V30 BEGIN CTAB
M  V30 COUNTS 27 28 0 0 0
M  V30 BEGIN ATOM
M  V30 1 N -1.189495 -2.334347 3.578382 0
M  V30 2 C -0.661009 -1.290742 2.822454 0
M  V30 3 O -1.667408 -0.548594 2.806259 0
M  V30 4 C 0.699726 -1.318471 2.324368 0
M  V30 5 C 1.572289 -2.364514 2.618834 0
M  V30 6 C 2.737654 -2.015923 2.006403 0
M  V30 7 C 2.506264 -0.807566 1.391029 0
M  V30 8 N 1.264334 -0.336539 1.556468 0
M  V30 9 C 0.626476 0.860589 1.084063 0
M  V30 10 C 0.024389 0.685548 -0.244751 0
M  V30 11 C -1.306373 0.436328 -0.496425 0
M  V30 12 C -1.900643 0.255824 -1.719807 0
M  V30 13 C -1.128026 0.321242 -2.846848 0
M  V30 14 C 0.225254 0.568820 -2.685948 0
M  V30 15 C 0.764660 0.742718 -1.414899 0
M  V30 16 Cl 2.472771 1.081667 -1.453194 0
M  V30 17 H -0.796693 -3.058283 4.214570 0
M  V30 18 H -2.052168 -2.838773 3.851896 0
M  V30 19 H 1.338058 -3.241325 3.205799 0
M  V30 20 H 3.615333 -2.644217 2.061057 0
M  V30 21 H 3.344863 -0.383541 0.865968 0
M  V30 22 H 1.313328 1.738498 1.129361 0
M  V30 23 H -0.220421 1.119001 1.774590 0
M  V30 24 H -2.002036 0.369760 0.323203 0
M  V30 25 H -2.956818 0.061159 -1.852567 0
M  V30 26 H -1.566979 0.184851 -3.812511 0
M  V30 27 H 0.788331 0.612468 -3.609523 0
M  V30 END ATOM
M  V30 BEGIN BOND
M  V30 1 1 1 2
M  V30 2 2 2 3
M  V30 3 1 2 4
M  V30 4 2 4 5
M  V30 5 1 5 6
M  V30 6 2 6 7
M  V30 7 1 7 8
M  V30 8 1 8 9
M  V30 9 1 9 10
M  V30 10 2 10 11
M  V30 11 1 11 12
M  V30 12 2 12 13
M  V30 13 1 13 14
M  V30 14 2 14 15
M  V30 15 1 15 16
M  V30 16 1 8 4
M  V30 17 1 15 10
M  V30 18 1 1 17
M  V30 19 1 1 18
M  V30 20 1 5 19
M  V30 21 1 6 20
M  V30 22 1 7 21
M  V30 23 1 9 22
M  V30 24 1 9 23
M  V30 25 1 11 24
M  V30 26 1 12 25
M  V30 27 1 13 26
M  V30 28 1 14 27
M  V30 END BOND
M  V30 END CTAB
M  END
>  <Dataset>  (360) 
ChEMBL_Kinases

>  <Ligand_Instance>  (360) 
nan

>  <PDB_ID>  (360) 
nan

>  <Standardized_SMILES>  (360) 
NC(=O)c1cccn1Cc1ccccc1Cl

>  <Name>  (360) 
nan

>  <Pocket>  (360) 
nan

>  <ATP_Site>  (360) 
nan

>  <Peripheral>  (360) 
nan

>  <Num_H_Atoms_ProtBoundConf>  (360) 
nan

>  <Num_Resolved_Atoms>  (360) 
nan

>  <Num_Not_Resolved_Atoms>  (360) 
nan

$$$$
CHEMBL1442011
     RDKit          3D

  0  0  0  0  0  0  0  0  0  0999 V3000
M  V30 BEGIN CTAB
M  V30 COUNTS 45 47 0 0 0
M  V30 BEGIN ATOM
M  V30 1 C -0.999945 -4.590639 2.112696 0
M  V30 2 N 0.331614 -4.087473 1.749496 0
M  V30 3 C 0.547685 -4.484398 0.374565 0
M  V30 4 C 1.552664 -3.669970 -0.337885 0
M  V30 5 N 1.413782 -2.219314 -0.159410 0
M  V30 6 C 1.348757 -1.438075 -1.343322 0
M  V30 7 N 1.791193 -1.990100 -2.485522 0
M  V30 8 C 1.845926 -1.342590 -3.658049 0
M  V30 9 N 1.444813 -0.062461 -3.746422 0
M  V30 10 C 0.983495 0.580153 -2.657981 0
M  V30 11 C 0.948063 -0.133348 -1.479699 0
M  V30 12 C 0.375251 0.586935 -0.354993 0
M  V30 13 C 1.129063 1.736717 -0.074458 0
M  V30 14 C 0.740240 2.604681 0.953203 0
M  V30 15 C -0.393979 2.303739 1.677819 0
M  V30 16 N -0.810739 3.167860 2.726700 0
M  V30 17 C -0.017986 4.351608 3.002072 0
M  V30 18 C -1.999938 2.870497 3.500766 0
M  V30 19 C -1.133310 1.172950 1.399828 0
M  V30 20 C -0.754734 0.314269 0.387983 0
M  V30 21 C 1.424862 -1.964930 1.257598 0
M  V30 22 C 0.248190 -2.648569 1.887907 0
M  V30 23 H -1.643164 -4.626152 1.207738 0
M  V30 24 H -0.959937 -5.613905 2.515046 0
M  V30 25 H -1.514659 -3.868528 2.806517 0
M  V30 26 H -0.402139 -4.536004 -0.202152 0
M  V30 27 H 0.936117 -5.522990 0.425181 0
M  V30 28 H 2.583988 -3.897224 0.064052 0
M  V30 29 H 1.580655 -3.945919 -1.397137 0
M  V30 30 H 2.222904 -1.894837 -4.512770 0
M  V30 31 H 0.660168 1.607769 -2.722636 0
M  V30 32 H 2.030503 2.063230 -0.580286 0
M  V30 33 H 1.288659 3.493388 1.199148 0
M  V30 34 H -0.310923 4.823481 3.968349 0
M  V30 35 H -0.009964 5.090505 2.195262 0
M  V30 36 H 1.050966 4.025643 3.153806 0
M  V30 37 H -1.854264 1.813690 3.867922 0
M  V30 38 H -2.931157 2.953342 2.909424 0
M  V30 39 H -1.997919 3.502032 4.407512 0
M  V30 40 H -2.013538 0.880322 1.914743 0
M  V30 41 H -1.197863 -0.584961 0.030258 0
M  V30 42 H 2.334956 -2.460294 1.697003 0
M  V30 43 H 1.492285 -0.901250 1.546962 0
M  V30 44 H 0.205213 -2.471065 2.996678 0
M  V30 45 H -0.737022 -2.360821 1.496632 0
M  V30 END ATOM
M  V30 BEGIN BOND
M  V30 1 1 1 2
M  V30 2 1 2 3
M  V30 3 1 3 4
M  V30 4 1 4 5
M  V30 5 1 5 6
M  V30 6 2 6 7
M  V30 7 1 7 8
M  V30 8 2 8 9
M  V30 9 1 9 10
M  V30 10 2 10 11
M  V30 11 1 11 12
M  V30 12 2 12 13
M  V30 13 1 13 14
M  V30 14 2 14 15
M  V30 15 1 15 16
M  V30 16 1 16 17
M  V30 17 1 16 18
M  V30 18 1 15 19
M  V30 19 2 19 20
M  V30 20 1 5 21
M  V30 21 1 21 22
M  V30 22 1 22 2
M  V30 23 1 11 6
M  V30 24 1 20 12
M  V30 25 1 1 23
M  V30 26 1 1 24
M  V30 27 1 1 25
M  V30 28 1 3 26
M  V30 29 1 3 27
M  V30 30 1 4 28
M  V30 31 1 4 29
M  V30 32 1 8 30
M  V30 33 1 10 31
M  V30 34 1 13 32
M  V30 35 1 14 33
M  V30 36 1 17 34
M  V30 37 1 17 35
M  V30 38 1 17 36
M  V30 39 1 18 37
M  V30 40 1 18 38
M  V30 41 1 18 39
M  V30 42 1 19 40
M  V30 43 1 20 41
M  V30 44 1 21 42
M  V30 45 1 21 43
M  V30 46 1 22 44
M  V30 47 1 22 45
M  V30 END BOND
M  V30 END CTAB
M  END
>  <Dataset>  (361) 
ChEMBL_Kinases

>  <Ligand_Instance>  (361) 
nan

>  <PDB_ID>  (361) 
nan

>  <Standardized_SMILES>  (361) 
CN1CCN(c2ncncc2-c2ccc(N(C)C)cc2)CC1

>  <Name>  (361) 
nan

>  <Pocket>  (361) 
nan

>  <ATP_Site>  (361) 
nan

>  <Peripheral>  (361) 
nan

>  <Num_H_Atoms_ProtBoundConf>  (361) 
nan

>  <Num_Resolved_Atoms>  (361) 
nan

>  <Num_Not_Resolved_Atoms>  (361) 
nan

$$$$
CHEMBL1442087
     RDKit          3D

  0  0  0  0  0  0  0  0  0  0999 V3000
M  V30 BEGIN CTAB
M  V30 COUNTS 61 62 0 0 0
M  V30 BEGIN ATOM
M  V30 1 C 0.372079 2.472678 3.401381 0
M  V30 2 C -0.405693 1.323616 3.996009 0
M  V30 3 C 0.173360 0.000013 3.561928 0
M  V30 4 C 0.176248 -0.233090 2.115887 0
M  V30 5 C -0.370405 -1.155464 1.290986 0
M  V30 6 C -1.182352 -2.218020 1.927000 0
M  V30 7 C -2.609806 -2.276449 1.500912 0
M  V30 8 C -3.229387 -3.439369 2.293744 0
M  V30 9 C -0.131740 -1.102088 -0.172522 0
M  V30 10 N -1.268305 -0.960785 -0.998773 0
M  V30 11 S -1.287430 0.334378 -2.103104 0
M  V30 12 O -0.305000 0.241335 -3.214348 0
M  V30 13 O -2.658625 0.310504 -2.767061 0
M  V30 14 C -1.206420 1.835352 -1.218770 0
M  V30 15 C -0.016625 2.455841 -0.926333 0
M  V30 16 C -0.021663 3.645392 -0.229782 0
M  V30 17 C -1.176873 4.273909 0.206934 0
M  V30 18 C -1.203553 5.553044 0.957527 0
M  V30 19 F -0.144547 5.700609 1.826847 0
M  V30 20 F -1.326553 6.627725 0.077897 0
M  V30 21 F -2.369977 5.555458 1.734628 0
M  V30 22 C -2.371420 3.650961 -0.086376 0
M  V30 23 C -2.352102 2.466337 -0.780968 0
M  V30 24 C 0.593921 -2.347513 -0.623911 0
M  V30 25 C 1.957948 -2.327616 -0.843369 0
M  V30 26 C 2.732464 -3.393646 -1.246766 0
M  V30 27 C 2.079857 -4.591495 -1.449332 0
M  V30 28 C 2.753803 -5.812897 -1.875550 0
M  V30 29 O 2.210958 -6.937502 -2.077319 0
M  V30 30 O 4.101349 -5.940814 -2.129432 0
M  V30 31 C 4.705465 -7.153960 -2.541868 0
M  V30 32 C 0.718065 -4.678994 -1.247677 0
M  V30 33 C 0.001920 -3.573306 -0.843504 0
M  V30 34 H 0.495384 3.241196 4.170795 0
M  V30 35 H 1.376916 2.086455 3.130057 0
M  V30 36 H -0.207876 2.870652 2.545224 0
M  V30 37 H -0.301360 1.375965 5.097322 0
M  V30 38 H -1.475480 1.442499 3.742286 0
M  V30 39 H -0.197422 -0.841455 4.182289 0
M  V30 40 H 1.261826 0.070607 3.875744 0
M  V30 41 H 0.768859 0.536148 1.585064 0
M  V30 42 H -1.174360 -2.163733 3.027891 0
M  V30 43 H -0.754791 -3.239340 1.703735 0
M  V30 44 H -2.799642 -2.480604 0.446897 0
M  V30 45 H -3.198325 -1.382526 1.786304 0
M  V30 46 H -2.807876 -3.343666 3.320941 0
M  V30 47 H -2.978557 -4.406116 1.819705 0
M  V30 48 H -4.322848 -3.254654 2.350061 0
M  V30 49 H 0.557712 -0.256297 -0.445016 0
M  V30 50 H -1.521448 -1.875490 -1.447102 0
M  V30 51 H 0.902562 1.995239 -1.250545 0
M  V30 52 H 0.920991 4.158669 0.014469 0
M  V30 53 H -3.320171 4.088584 0.226507 0
M  V30 54 H -3.305436 1.975410 -1.011413 0
M  V30 55 H 2.536940 -1.401041 -0.698959 0
M  V30 56 H 3.790047 -3.330728 -1.404600 0
M  V30 57 H 5.219816 -7.584993 -1.632786 0
M  V30 58 H 5.502827 -7.030011 -3.288137 0
M  V30 59 H 3.967711 -7.929164 -2.839300 0
M  V30 60 H 0.158924 -5.614596 -1.397728 0
M  V30 61 H -1.061700 -3.671766 -0.689188 0
M  V30 END ATOM
M  V30 BEGIN BOND
M  V30 1 1 1 2
M  V30 2 1 2 3
M  V30 3 1 3 4
M  V30 4 2 4 5
M  V30 5 1 5 6
M  V30 6 1 6 7
M  V30 7 1 7 8
M  V30 8 1 5 9
M  V30 9 1 9 10
M  V30 10 1 10 11
M  V30 11 2 11 12
M  V30 12 2 11 13
M  V30 13 1 11 14
M  V30 14 2 14 15
M  V30 15 1 15 16
M  V30 16 2 16 17
M  V30 17 1 17 18
M  V30 18 1 18 19
M  V30 19 1 18 20
M  V30 20 1 18 21
M  V30 21 1 17 22
M  V30 22 2 22 23
M  V30 23 1 9 24
M  V30 24 2 24 25
M  V30 25 1 25 26
M  V30 26 2 26 27
M  V30 27 1 27 28
M  V30 28 2 28 29
M  V30 29 1 28 30
M  V30 30 1 30 31
M  V30 31 1 27 32
M  V30 32 2 32 33
M  V30 33 1 23 14
M  V30 34 1 33 24
M  V30 35 1 1 34
M  V30 36 1 1 35
M  V30 37 1 1 36
M  V30 38 1 2 37
M  V30 39 1 2 38
M  V30 40 1 3 39
M  V30 41 1 3 40
M  V30 42 1 4 41
M  V30 43 1 6 42
M  V30 44 1 6 43
M  V30 45 1 7 44
M  V30 46 1 7 45
M  V30 47 1 8 46
M  V30 48 1 8 47
M  V30 49 1 8 48
M  V30 50 1 9 49
M  V30 51 1 10 50
M  V30 52 1 15 51
M  V30 53 1 16 52
M  V30 54 1 22 53
M  V30 55 1 23 54
M  V30 56 1 25 55
M  V30 57 1 26 56
M  V30 58 1 31 57
M  V30 59 1 31 58
M  V30 60 1 31 59
M  V30 61 1 32 60
M  V30 62 1 33 61
M  V30 END BOND
M  V30 END CTAB
M  END
>  <Dataset>  (362) 
ChEMBL_Kinases

>  <Ligand_Instance>  (362) 
nan

>  <PDB_ID>  (362) 
nan

>  <Standardized_SMILES>  (362) 
CCC/C=C(\CCC)C(NS(=O)(=O)c1ccc(C(F)(F)F)cc1)c1ccc(C(=O)OC)cc1

>  <Name>  (362) 
nan

>  <Pocket>  (362) 
nan

>  <ATP_Site>  (362) 
nan

>  <Peripheral>  (362) 
nan

>  <Num_H_Atoms_ProtBoundConf>  (362) 
nan

>  <Num_Resolved_Atoms>  (362) 
nan

>  <Num_Not_Resolved_Atoms>  (362) 
nan

$$$$
CHEMBL1442091
     RDKit          3D

  0  0  0  0  0  0  0  0  0  0999 V3000
M  V30 BEGIN CTAB
M  V30 COUNTS 53 57 0 0 0
M  V30 BEGIN ATOM
M  V30 1 C 0.869682 -3.305712 2.657306 0
M  V30 2 O 2.043505 -3.306705 1.851973 0
M  V30 3 C 2.313389 -4.332781 0.980140 0
M  V30 4 O 1.497537 -5.288836 0.899811 0
M  V30 5 C 3.564311 -4.156882 0.239242 0
M  V30 6 S 3.272253 -3.228208 -1.290242 0
M  V30 7 C 2.765062 -1.570354 -0.882107 0
M  V30 8 N 3.591884 -0.537460 -0.670702 0
M  V30 9 N 2.938111 0.572426 -0.387035 0
M  V30 10 C 1.639889 0.316343 -0.400016 0
M  V30 11 N 0.470602 1.008565 -0.200713 0
M  V30 12 C 0.727137 2.379788 0.107121 0
M  V30 13 C 1.925195 2.461820 1.059093 0
M  V30 14 C 1.739722 3.513431 2.131982 0
M  V30 15 C 0.553249 3.261567 3.024581 0
M  V30 16 C -0.533121 2.614346 2.156355 0
M  V30 17 C -0.359413 3.148644 0.768164 0
M  V30 18 C -0.741984 0.439658 -0.296286 0
M  V30 19 O -1.748190 1.131218 -0.102493 0
M  V30 20 C -0.872455 -0.896103 -0.606135 0
M  V30 21 C -2.019462 -1.621491 -0.749542 0
M  V30 22 C -1.934534 -2.950289 -1.072556 0
M  V30 23 S -0.162326 -3.284618 -1.201780 0
M  V30 24 C 0.328402 -1.603926 -0.809625 0
M  V30 25 N 1.574353 -0.986745 -0.703048 0
M  V30 26 C -3.098420 -3.864098 -1.259943 0
M  V30 27 C -4.150775 -3.632728 -0.196484 0
M  V30 28 C -4.059781 -2.232571 0.372930 0
M  V30 29 C -3.455384 -1.270299 -0.626134 0
M  V30 30 H 0.933093 -2.574586 3.478990 0
M  V30 31 H -0.024010 -2.998260 2.061070 0
M  V30 32 H 0.711753 -4.291547 3.140345 0
M  V30 33 H 4.380415 -3.730999 0.861101 0
M  V30 34 H 3.917890 -5.192195 -0.026965 0
M  V30 35 H 1.070927 2.933605 -0.819395 0
M  V30 36 H 2.858203 2.749436 0.522858 0
M  V30 37 H 2.086218 1.513737 1.612789 0
M  V30 38 H 1.846877 4.545307 1.778636 0
M  V30 39 H 2.635887 3.361029 2.809659 0
M  V30 40 H 0.173168 4.204753 3.444423 0
M  V30 41 H 0.807322 2.614668 3.896208 0
M  V30 42 H -1.539238 2.761409 2.574876 0
M  V30 43 H -0.294286 1.515825 2.166497 0
M  V30 44 H -1.277250 3.318007 0.199890 0
M  V30 45 H 0.060211 4.203471 0.886162 0
M  V30 46 H -2.723657 -4.906787 -1.162513 0
M  V30 47 H -3.536298 -3.794833 -2.286069 0
M  V30 48 H -5.173755 -3.753111 -0.601052 0
M  V30 49 H -4.023550 -4.386326 0.606617 0
M  V30 50 H -5.038402 -1.897618 0.742005 0
M  V30 51 H -3.371520 -2.280587 1.240494 0
M  V30 52 H -3.619723 -0.250464 -0.250217 0
M  V30 53 H -3.952646 -1.455918 -1.602665 0
M  V30 END ATOM
M  V30 BEGIN BOND
M  V30 1 1 1 2
M  V30 2 1 2 3
M  V30 3 2 3 4
M  V30 4 1 3 5
M  V30 5 1 5 6
M  V30 6 1 6 7
M  V30 7 2 7 8
M  V30 8 1 8 9
M  V30 9 2 9 10
M  V30 10 1 10 11
M  V30 11 1 11 12
M  V30 12 1 12 13
M  V30 13 1 13 14
M  V30 14 1 14 15
M  V30 15 1 15 16
M  V30 16 1 16 17
M  V30 17 1 11 18
M  V30 18 2 18 19
M  V30 19 1 18 20
M  V30 20 1 20 21
M  V30 21 2 21 22
M  V30 22 1 22 23
M  V30 23 1 23 24
M  V30 24 1 24 25
M  V30 25 1 22 26
M  V30 26 1 26 27
M  V30 27 1 27 28
M  V30 28 1 28 29
M  V30 29 1 25 7
M  V30 30 1 25 10
M  V30 31 1 17 12
M  V30 32 2 24 20
M  V30 33 1 29 21
M  V30 34 1 1 30
M  V30 35 1 1 31
M  V30 36 1 1 32
M  V30 37 1 5 33
M  V30 38 1 5 34
M  V30 39 1 12 35
M  V30 40 1 13 36
M  V30 41 1 13 37
M  V30 42 1 14 38
M  V30 43 1 14 39
M  V30 44 1 15 40
M  V30 45 1 15 41
M  V30 46 1 16 42
M  V30 47 1 16 43
M  V30 48 1 17 44
M  V30 49 1 17 45
M  V30 50 1 26 46
M  V30 51 1 26 47
M  V30 52 1 27 48
M  V30 53 1 27 49
M  V30 54 1 28 50
M  V30 55 1 28 51
M  V30 56 1 29 52
M  V30 57 1 29 53
M  V30 END BOND
M  V30 END CTAB
M  END
>  <Dataset>  (363) 
ChEMBL_Kinases

>  <Ligand_Instance>  (363) 
nan

>  <PDB_ID>  (363) 
nan

>  <Standardized_SMILES>  (363) 
COC(=O)CSc1nnc2n(C3CCCCC3)c(=O)c3c4c(sc3n12)CCCC4

>  <Name>  (363) 
nan

>  <Pocket>  (363) 
nan

>  <ATP_Site>  (363) 
nan

>  <Peripheral>  (363) 
nan

>  <Num_H_Atoms_ProtBoundConf>  (363) 
nan

>  <Num_Resolved_Atoms>  (363) 
nan

>  <Num_Not_Resolved_Atoms>  (363) 
nan

$$$$
CHEMBL1442131
     RDKit          3D

  0  0  0  0  0  0  0  0  0  0999 V3000
M  V30 BEGIN CTAB
M  V30 COUNTS 60 62 0 0 0
M  V30 BEGIN ATOM
M  V30 1 C -0.879007 2.484883 2.167935 0
M  V30 2 C 0.245163 1.643070 2.485193 0
M  V30 3 C 0.345016 0.222293 2.067509 0
M  V30 4 C 1.683415 -0.208424 2.623583 0
M  V30 5 C 0.462500 0.046483 0.592540 0
M  V30 6 O -0.605424 -0.619558 0.571962 0
M  V30 7 N 1.499090 0.550144 -0.234360 0
M  V30 8 C 1.540189 0.337222 -1.648828 0
M  V30 9 C 2.778302 -0.357334 -2.139939 0
M  V30 10 C 2.604993 -0.561240 -3.626436 0
M  V30 11 C 1.345403 0.070225 -4.173011 0
M  V30 12 C 1.147741 1.491297 -3.760791 0
M  V30 13 C 1.481237 1.697110 -2.314916 0
M  V30 14 N -0.635956 -0.686380 2.595850 0
M  V30 15 C -1.814919 -0.408781 3.396559 0
M  V30 16 C -3.043851 -0.188974 2.594689 0
M  V30 17 C -3.910985 -1.234093 2.236999 0
M  V30 18 C -4.966269 -0.740102 1.495763 0
M  V30 19 C -4.712541 0.592601 1.422635 0
M  V30 20 O -3.625733 0.829754 2.056801 0
M  V30 21 C -0.417159 -2.064852 2.307592 0
M  V30 22 O -1.212269 -2.960098 2.689920 0
M  V30 23 C 0.423769 -3.065812 1.687486 0
M  V30 24 C -0.221409 -4.436498 1.896760 0
M  V30 25 N 0.621939 -5.457540 1.283945 0
M  V30 26 C 0.331869 -5.371271 -0.126352 0
M  V30 27 O 1.148860 -5.780131 -0.999432 0
M  V30 28 N -0.962074 -4.774184 -0.215668 0
M  V30 29 C -1.472595 -4.492700 1.090203 0
M  V30 30 O -2.734305 -4.396321 1.099499 0
M  V30 31 H -1.450113 2.291705 1.246248 0
M  V30 32 H -0.557453 3.563716 2.044467 0
M  V30 33 H -1.630023 2.551907 2.984443 0
M  V30 34 H 0.390969 1.620327 3.607688 0
M  V30 35 H 1.196790 2.117466 2.138168 0
M  V30 36 H 1.569535 -0.788525 3.568883 0
M  V30 37 H 2.202911 -0.935210 1.932136 0
M  V30 38 H 2.409607 0.607276 2.751617 0
M  V30 39 H 2.231477 1.090003 0.273324 0
M  V30 40 H 0.690227 -0.245602 -2.020022 0
M  V30 41 H 2.920221 -1.360787 -1.693641 0
M  V30 42 H 3.634517 0.312281 -1.984214 0
M  V30 43 H 3.442380 -0.160005 -4.213480 0
M  V30 44 H 2.531886 -1.642488 -3.902340 0
M  V30 45 H 0.436713 -0.558289 -4.030775 0
M  V30 46 H 1.477894 0.086457 -5.289233 0
M  V30 47 H 1.708277 2.184220 -4.451204 0
M  V30 48 H 0.062304 1.735954 -3.902333 0
M  V30 49 H 0.786117 2.382069 -1.780802 0
M  V30 50 H 2.503004 2.157928 -2.255363 0
M  V30 51 H -2.033268 -1.253132 4.097828 0
M  V30 52 H -1.628022 0.434623 4.108985 0
M  V30 53 H -3.859267 -2.295323 2.455093 0
M  V30 54 H -5.808963 -1.249276 1.060311 0
M  V30 55 H -5.319161 1.341499 0.916067 0
M  V30 56 H 0.648394 -2.956416 0.624753 0
M  V30 57 H 1.387300 -3.161912 2.288808 0
M  V30 58 H -0.397431 -4.644350 2.957076 0
M  V30 59 H 1.275166 -6.085219 1.808150 0
M  V30 60 H -1.310305 -4.646647 -1.199457 0
M  V30 END ATOM
M  V30 BEGIN BOND
M  V30 1 1 1 2
M  V30 2 1 2 3
M  V30 3 1 3 4
M  V30 4 1 3 5
M  V30 5 2 5 6
M  V30 6 1 5 7
M  V30 7 1 7 8
M  V30 8 1 8 9
M  V30 9 1 9 10
M  V30 10 1 10 11
M  V30 11 1 11 12
M  V30 12 1 12 13
M  V30 13 1 3 14
M  V30 14 1 14 15
M  V30 15 1 15 16
M  V30 16 2 16 17
M  V30 17 1 17 18
M  V30 18 2 18 19
M  V30 19 1 19 20
M  V30 20 1 14 21
M  V30 21 2 21 22
M  V30 22 1 21 23
M  V30 23 1 23 24
M  V30 24 1 24 25
M  V30 25 1 25 26
M  V30 26 2 26 27
M  V30 27 1 26 28
M  V30 28 1 28 29
M  V30 29 2 29 30
M  V30 30 1 13 8
M  V30 31 1 20 16
M  V30 32 1 29 24
M  V30 33 1 1 31
M  V30 34 1 1 32
M  V30 35 1 1 33
M  V30 36 1 2 34
M  V30 37 1 2 35
M  V30 38 1 4 36
M  V30 39 1 4 37
M  V30 40 1 4 38
M  V30 41 1 7 39
M  V30 42 1 8 40
M  V30 43 1 9 41
M  V30 44 1 9 42
M  V30 45 1 10 43
M  V30 46 1 10 44
M  V30 47 1 11 45
M  V30 48 1 11 46
M  V30 49 1 12 47
M  V30 50 1 12 48
M  V30 51 1 13 49
M  V30 52 1 13 50
M  V30 53 1 15 51
M  V30 54 1 15 52
M  V30 55 1 17 53
M  V30 56 1 18 54
M  V30 57 1 19 55
M  V30 58 1 23 56
M  V30 59 1 23 57
M  V30 60 1 24 58
M  V30 61 1 25 59
M  V30 62 1 28 60
M  V30 END BOND
M  V30 END CTAB
M  END
>  <Dataset>  (364) 
ChEMBL_Kinases

>  <Ligand_Instance>  (364) 
nan

>  <PDB_ID>  (364) 
nan

>  <Standardized_SMILES>  (364) 
CCC(C)(C(=O)NC1CCCCC1)N(Cc1ccco1)C(=O)CC1NC(=O)NC1=O

>  <Name>  (364) 
nan

>  <Pocket>  (364) 
nan

>  <ATP_Site>  (364) 
nan

>  <Peripheral>  (364) 
nan

>  <Num_H_Atoms_ProtBoundConf>  (364) 
nan

>  <Num_Resolved_Atoms>  (364) 
nan

>  <Num_Not_Resolved_Atoms>  (364) 
nan

$$$$
CHEMBL1442203
     RDKit          3D

  0  0  0  0  0  0  0  0  0  0999 V3000
M  V30 BEGIN CTAB
M  V30 COUNTS 52 56 0 0 0
M  V30 BEGIN ATOM
M  V30 1 C -0.777430 -3.970160 3.450882 0
M  V30 2 C 0.587790 -4.471264 3.046983 0
M  V30 3 C 1.639596 -3.406287 3.163468 0
M  V30 4 N 1.339912 -2.291540 2.371680 0
M  V30 5 C 2.285651 -1.200057 2.438134 0
M  V30 6 C 1.656289 -0.103096 1.560122 0
M  V30 7 N 1.892051 -0.447903 0.162396 0
M  V30 8 C 2.283086 0.149580 -1.086724 0
M  V30 9 N 3.542611 -0.233223 -1.304700 0
M  V30 10 C 4.248493 0.162268 -2.352334 0
M  V30 11 N 3.640652 0.988572 -3.220426 0
M  V30 12 C 2.372621 1.390956 -3.028724 0
M  V30 13 S 1.258847 2.430824 -3.916691 0
M  V30 14 C -0.123687 2.286131 -2.831768 0
M  V30 15 C 0.331671 1.425014 -1.804040 0
M  V30 16 C -0.660652 1.114208 -0.753589 0
M  V30 17 C -0.690621 2.125008 0.345615 0
M  V30 18 O -1.572715 1.612910 1.356694 0
M  V30 19 C -2.757237 1.015646 0.880759 0
M  V30 20 C -3.723590 0.747626 1.827225 0
M  V30 21 C -4.948000 0.160938 1.521935 0
M  V30 22 C -5.144394 -0.145727 0.179099 0
M  V30 23 C -4.201937 0.105275 -0.807312 0
M  V30 24 C -3.020915 0.681335 -0.451789 0
M  V30 25 O -1.977534 0.993686 -1.332037 0
M  V30 26 C 1.610115 0.986027 -1.931916 0
M  V30 27 C 1.658803 -1.860743 0.021619 0
M  V30 28 C 0.754313 -2.426314 1.103102 0
M  V30 29 H -1.080060 -4.339621 4.456776 0
M  V30 30 H -1.515334 -4.367391 2.731567 0
M  V30 31 H -0.842541 -2.855173 3.377166 0
M  V30 32 H 0.509588 -4.939929 2.054442 0
M  V30 33 H 0.811403 -5.337401 3.735150 0
M  V30 34 H 1.644348 -3.072994 4.243160 0
M  V30 35 H 2.650586 -3.837219 2.970770 0
M  V30 36 H 3.203806 -1.489367 1.931141 0
M  V30 37 H 2.482679 -0.853360 3.450920 0
M  V30 38 H 0.572342 -0.077500 1.725889 0
M  V30 39 H 2.073461 0.881686 1.808408 0
M  V30 40 H 5.257398 -0.051675 -2.668579 0
M  V30 41 H -1.047794 2.762585 -2.978397 0
M  V30 42 H -0.434061 0.131936 -0.354712 0
M  V30 43 H -1.088740 3.085207 -0.054810 0
M  V30 44 H 0.278366 2.281575 0.817302 0
M  V30 45 H -3.571306 0.986304 2.873733 0
M  V30 46 H -5.704575 -0.048515 2.270249 0
M  V30 47 H -6.077506 -0.605913 -0.139077 0
M  V30 48 H -4.361433 -0.134485 -1.842474 0
M  V30 49 H 1.273683 -2.131908 -0.993003 0
M  V30 50 H 2.614346 -2.453092 0.111301 0
M  V30 51 H 0.400885 -3.445580 0.819571 0
M  V30 52 H -0.188990 -1.804402 1.029532 0
M  V30 END ATOM
M  V30 BEGIN BOND
M  V30 1 1 1 2
M  V30 2 1 2 3
M  V30 3 1 3 4
M  V30 4 1 4 5
M  V30 5 1 5 6
M  V30 6 1 6 7
M  V30 7 1 7 8
M  V30 8 2 8 9
M  V30 9 1 9 10
M  V30 10 2 10 11
M  V30 11 1 11 12
M  V30 12 1 12 13
M  V30 13 1 13 14
M  V30 14 2 14 15
M  V30 15 1 15 16
M  V30 16 1 16 17
M  V30 17 1 17 18
M  V30 18 1 18 19
M  V30 19 2 19 20
M  V30 20 1 20 21
M  V30 21 2 21 22
M  V30 22 1 22 23
M  V30 23 2 23 24
M  V30 24 1 24 25
M  V30 25 1 15 26
M  V30 26 1 7 27
M  V30 27 1 27 28
M  V30 28 1 28 4
M  V30 29 1 26 8
M  V30 30 2 26 12
M  V30 31 1 25 16
M  V30 32 1 24 19
M  V30 33 1 1 29
M  V30 34 1 1 30
M  V30 35 1 1 31
M  V30 36 1 2 32
M  V30 37 1 2 33
M  V30 38 1 3 34
M  V30 39 1 3 35
M  V30 40 1 5 36
M  V30 41 1 5 37
M  V30 42 1 6 38
M  V30 43 1 6 39
M  V30 44 1 10 40
M  V30 45 1 14 41
M  V30 46 1 16 42
M  V30 47 1 17 43
M  V30 48 1 17 44
M  V30 49 1 20 45
M  V30 50 1 21 46
M  V30 51 1 22 47
M  V30 52 1 23 48
M  V30 53 1 27 49
M  V30 54 1 27 50
M  V30 55 1 28 51
M  V30 56 1 28 52
M  V30 END BOND
M  V30 END CTAB
M  END
>  <Dataset>  (365) 
ChEMBL_Kinases

>  <Ligand_Instance>  (365) 
nan

>  <PDB_ID>  (365) 
nan

>  <Standardized_SMILES>  (365) 
CCCN1CCN(c2ncnc3scc(C4COc5ccccc5O4)c23)CC1

>  <Name>  (365) 
nan

>  <Pocket>  (365) 
nan

>  <ATP_Site>  (365) 
nan

>  <Peripheral>  (365) 
nan

>  <Num_H_Atoms_ProtBoundConf>  (365) 
nan

>  <Num_Resolved_Atoms>  (365) 
nan

>  <Num_Not_Resolved_Atoms>  (365) 
nan

$$$$
CHEMBL1442245
     RDKit          3D

  0  0  0  0  0  0  0  0  0  0999 V3000
M  V30 BEGIN CTAB
M  V30 COUNTS 34 35 0 0 0
M  V30 BEGIN ATOM
M  V30 1 C 1.438980 -3.065295 -1.036844 0
M  V30 2 C 0.916066 -2.415173 -2.100093 0
M  V30 3 C -0.451880 -1.820442 -1.934725 0
M  V30 4 N -0.487472 -0.407830 -2.121487 0
M  V30 5 C -0.704593 0.149798 -3.334348 0
M  V30 6 S -0.990916 -0.550450 -4.955067 0
M  V30 7 N -0.682166 1.488626 -3.189838 0
M  V30 8 N -0.452180 1.756477 -1.893505 0
M  V30 9 C -0.329037 0.575537 -1.217100 0
M  V30 10 C -0.074334 0.407858 0.208316 0
M  V30 11 C 1.260070 0.276323 0.541341 0
M  V30 12 C 1.612135 0.113490 1.863653 0
M  V30 13 C 0.664410 0.078630 2.863621 0
M  V30 14 O 0.846120 -0.075888 4.227913 0
M  V30 15 C 2.135317 -0.229732 4.787643 0
M  V30 16 C -0.661493 0.210748 2.518556 0
M  V30 17 O -1.711580 0.192903 3.425244 0
M  V30 18 C -3.038276 0.331836 3.010898 0
M  V30 19 C -1.047477 0.377343 1.183282 0
M  V30 20 H 1.315912 -3.391593 -0.008560 0
M  V30 21 H 1.368739 -3.422521 0.003986 0
M  V30 22 H 1.901430 -2.825614 -2.267319 0
M  V30 23 H -0.911095 -2.179172 -0.975724 0
M  V30 24 H -1.080985 -2.358860 -2.706865 0
M  V30 25 H -0.905314 -1.946354 -4.883499 0
M  V30 26 H 2.096562 0.287057 -0.145182 0
M  V30 27 H 2.625708 0.003578 2.210445 0
M  V30 28 H 2.932046 0.285027 4.216006 0
M  V30 29 H 2.405125 -1.313484 4.924307 0
M  V30 30 H 2.178186 0.244807 5.811177 0
M  V30 31 H -3.742652 0.456578 3.855319 0
M  V30 32 H -3.095346 1.261868 2.395336 0
M  V30 33 H -3.271584 -0.526347 2.360586 0
M  V30 34 H -2.060033 0.486789 0.820767 0
M  V30 END ATOM
M  V30 BEGIN BOND
M  V30 1 2 1 2
M  V30 2 1 2 3
M  V30 3 1 3 4
M  V30 4 1 4 5
M  V30 5 1 5 6
M  V30 6 2 5 7
M  V30 7 1 7 8
M  V30 8 2 8 9
M  V30 9 1 9 10
M  V30 10 2 10 11
M  V30 11 1 11 12
M  V30 12 2 12 13
M  V30 13 1 13 14
M  V30 14 1 14 15
M  V30 15 1 13 16
M  V30 16 1 16 17
M  V30 17 1 17 18
M  V30 18 2 16 19
M  V30 19 1 9 4
M  V30 20 1 19 10
M  V30 21 1 1 20
M  V30 22 1 1 21
M  V30 23 1 2 22
M  V30 24 1 3 23
M  V30 25 1 3 24
M  V30 26 1 6 25
M  V30 27 1 11 26
M  V30 28 1 12 27
M  V30 29 1 15 28
M  V30 30 1 15 29
M  V30 31 1 15 30
M  V30 32 1 18 31
M  V30 33 1 18 32
M  V30 34 1 18 33
M  V30 35 1 19 34
M  V30 END BOND
M  V30 END CTAB
M  END
>  <Dataset>  (366) 
ChEMBL_Kinases

>  <Ligand_Instance>  (366) 
nan

>  <PDB_ID>  (366) 
nan

>  <Standardized_SMILES>  (366) 
C=CCn1c(S)nnc1-c1ccc(OC)c(OC)c1

>  <Name>  (366) 
nan

>  <Pocket>  (366) 
nan

>  <ATP_Site>  (366) 
nan

>  <Peripheral>  (366) 
nan

>  <Num_H_Atoms_ProtBoundConf>  (366) 
nan

>  <Num_Resolved_Atoms>  (366) 
nan

>  <Num_Not_Resolved_Atoms>  (366) 
nan

$$$$
CHEMBL1442969
     RDKit          3D

  0  0  0  0  0  0  0  0  0  0999 V3000
M  V30 BEGIN CTAB
M  V30 COUNTS 31 33 0 0 0
M  V30 BEGIN ATOM
M  V30 1 C -3.605297 -2.425483 2.946975 0
M  V30 2 N -3.030209 -1.168137 3.366523 0
M  V30 3 C -1.903566 -0.456428 2.876640 0
M  V30 4 N -1.196945 -0.975007 1.846690 0
M  V30 5 C -0.124133 -0.326839 1.358091 0
M  V30 6 N 0.599021 -0.896949 0.274537 0
M  V30 7 C 0.286375 -2.142765 -0.374727 0
M  V30 8 C 0.740086 -1.908394 -1.804331 0
M  V30 9 C 1.862221 -0.943697 -1.610348 0
M  V30 10 C 2.853598 -0.665421 -2.504822 0
M  V30 11 C 3.810803 0.265550 -2.138814 0
M  V30 12 C 3.703373 0.857119 -0.887542 0
M  V30 13 C 2.687371 0.567094 0.020174 0
M  V30 14 C 1.747832 -0.362256 -0.367974 0
M  V30 15 N 0.218835 0.838160 1.919216 0
M  V30 16 C -0.452748 1.394514 2.945644 0
M  V30 17 C -1.570285 0.742796 3.472195 0
M  V30 18 F -2.264553 1.278686 4.503937 0
M  V30 19 H -3.724267 -3.132573 3.766894 0
M  V30 20 H -4.607606 -2.202853 2.524393 0
M  V30 21 H -3.002052 -2.811268 2.115411 0
M  V30 22 H -3.602836 -0.817586 4.148979 0
M  V30 23 H 0.926489 -2.956268 0.045633 0
M  V30 24 H -0.784930 -2.415489 -0.322454 0
M  V30 25 H 1.107967 -2.833841 -2.273748 0
M  V30 26 H -0.056124 -1.407993 -2.380792 0
M  V30 27 H 2.969258 -1.101767 -3.479611 0
M  V30 28 H 4.623891 0.537689 -2.790912 0
M  V30 29 H 4.465086 1.587891 -0.614944 0
M  V30 30 H 2.602656 1.019178 0.980139 0
M  V30 31 H -0.124673 2.338026 3.354409 0
M  V30 END ATOM
M  V30 BEGIN BOND
M  V30 1 1 1 2
M  V30 2 1 2 3
M  V30 3 2 3 4
M  V30 4 1 4 5
M  V30 5 1 5 6
M  V30 6 1 6 7
M  V30 7 1 7 8
M  V30 8 1 8 9
M  V30 9 2 9 10
M  V30 10 1 10 11
M  V30 11 2 11 12
M  V30 12 1 12 13
M  V30 13 2 13 14
M  V30 14 2 5 15
M  V30 15 1 15 16
M  V30 16 2 16 17
M  V30 17 1 17 18
M  V30 18 1 17 3
M  V30 19 1 14 6
M  V30 20 1 14 9
M  V30 21 1 1 19
M  V30 22 1 1 20
M  V30 23 1 1 21
M  V30 24 1 2 22
M  V30 25 1 7 23
M  V30 26 1 7 24
M  V30 27 1 8 25
M  V30 28 1 8 26
M  V30 29 1 10 27
M  V30 30 1 11 28
M  V30 31 1 12 29
M  V30 32 1 13 30
M  V30 33 1 16 31
M  V30 END BOND
M  V30 END CTAB
M  END
>  <Dataset>  (367) 
ChEMBL_Kinases

>  <Ligand_Instance>  (367) 
nan

>  <PDB_ID>  (367) 
nan

>  <Standardized_SMILES>  (367) 
CNc1nc(N2CCc3ccccc32)ncc1F

>  <Name>  (367) 
nan

>  <Pocket>  (367) 
nan

>  <ATP_Site>  (367) 
nan

>  <Peripheral>  (367) 
nan

>  <Num_H_Atoms_ProtBoundConf>  (367) 
nan

>  <Num_Resolved_Atoms>  (367) 
nan

>  <Num_Not_Resolved_Atoms>  (367) 
nan

$$$$
CHEMBL1442440
     RDKit          3D

  0  0  0  0  0  0  0  0  0  0999 V3000
M  V30 BEGIN CTAB
M  V30 COUNTS 29 31 0 0 0
M  V30 BEGIN ATOM
M  V30 1 F -2.363373 -4.426833 2.901430 0
M  V30 2 C -1.524651 -3.385472 2.683997 0
M  V30 3 C -1.383510 -2.363788 3.595082 0
M  V30 4 C -0.518861 -1.330881 3.325268 0
M  V30 5 C 0.234657 -1.245614 2.177857 0
M  V30 6 N 1.137255 -0.165242 1.892654 0
M  V30 7 C 1.866347 -0.229191 0.652992 0
M  V30 8 N 3.087225 -0.830649 0.698210 0
M  V30 9 C 3.827595 -0.926028 -0.443374 0
M  V30 10 N 3.362116 -0.432844 -1.606220 0
M  V30 11 C 2.147319 0.177811 -1.704328 0
M  V30 12 C 1.402741 0.271491 -0.546040 0
M  V30 13 C 0.088812 0.903847 -0.528035 0
M  V30 14 C -0.348721 1.799577 0.393504 0
M  V30 15 C -1.641124 2.133530 0.027493 0
M  V30 16 O -1.998447 1.487505 -1.059935 0
M  V30 17 C -0.973578 0.733963 -1.422490 0
M  V30 18 C 0.059907 -2.298562 1.287289 0
M  V30 19 C -0.795490 -3.357140 1.513070 0
M  V30 20 H -1.971212 -2.423445 4.497223 0
M  V30 21 H -0.428350 -0.548760 4.052196 0
M  V30 22 H 1.177283 0.580463 2.632803 0
M  V30 23 H 4.801628 -1.413700 -0.372297 0
M  V30 24 H 1.780505 0.568333 -2.627981 0
M  V30 25 H 0.112684 2.223798 1.249523 0
M  V30 26 H -2.328624 2.816351 0.507463 0
M  V30 27 H -0.845587 0.045952 -2.261290 0
M  V30 28 H 0.625588 -2.285251 0.369250 0
M  V30 29 H -0.867238 -4.131619 0.763380 0
M  V30 END ATOM
M  V30 BEGIN BOND
M  V30 1 1 1 2
M  V30 2 2 2 3
M  V30 3 1 3 4
M  V30 4 2 4 5
M  V30 5 1 5 6
M  V30 6 1 6 7
M  V30 7 2 7 8
M  V30 8 1 8 9
M  V30 9 2 9 10
M  V30 10 1 10 11
M  V30 11 2 11 12
M  V30 12 1 12 13
M  V30 13 1 13 14
M  V30 14 2 14 15
M  V30 15 1 15 16
M  V30 16 1 16 17
M  V30 17 1 5 18
M  V30 18 2 18 19
M  V30 19 1 19 2
M  V30 20 1 12 7
M  V30 21 2 17 13
M  V30 22 1 3 20
M  V30 23 1 4 21
M  V30 24 1 6 22
M  V30 25 1 9 23
M  V30 26 1 11 24
M  V30 27 1 14 25
M  V30 28 1 15 26
M  V30 29 1 17 27
M  V30 30 1 18 28
M  V30 31 1 19 29
M  V30 END BOND
M  V30 END CTAB
M  END
>  <Dataset>  (368) 
ChEMBL_Kinases

>  <Ligand_Instance>  (368) 
nan

>  <PDB_ID>  (368) 
nan

>  <Standardized_SMILES>  (368) 
Fc1ccc(Nc2ncncc2-c2ccoc2)cc1

>  <Name>  (368) 
nan

>  <Pocket>  (368) 
nan

>  <ATP_Site>  (368) 
nan

>  <Peripheral>  (368) 
nan

>  <Num_H_Atoms_ProtBoundConf>  (368) 
nan

>  <Num_Resolved_Atoms>  (368) 
nan

>  <Num_Not_Resolved_Atoms>  (368) 
nan

$$$$
CHEMBL1442455
     RDKit          3D

  0  0  0  0  0  0  0  0  0  0999 V3000
M  V30 BEGIN CTAB
M  V30 COUNTS 31 32 0 0 0
M  V30 BEGIN ATOM
M  V30 1 C -1.140558 -2.847051 3.612638 0
M  V30 2 O -0.781952 -2.093178 2.451133 0
M  V30 3 C 0.078776 -2.599418 1.490873 0
M  V30 4 O 0.431921 -3.751248 1.842002 0
M  V30 5 C 0.497608 -1.910001 0.285749 0
M  V30 6 C 1.321474 -2.412491 -0.615503 0
M  V30 7 C 2.022036 -3.695448 -0.707297 0
M  V30 8 N 1.513116 -1.454715 -1.649657 0
M  V30 9 C 0.742636 -0.301869 -1.329441 0
M  V30 10 O 0.609084 0.779302 -1.922364 0
M  V30 11 C 0.012496 -0.518808 -0.062611 0
M  V30 12 N 0.342614 0.353600 1.003378 0
M  V30 13 C 0.231366 1.756115 1.189538 0
M  V30 14 N 0.583913 2.572811 2.339962 0
M  V30 15 C 0.299654 3.831760 2.006476 0
M  V30 16 C -0.258680 4.411052 0.764796 0
M  V30 17 S -0.393313 2.766253 -0.087501 0
M  V30 18 C -1.459592 -0.591162 -0.411939 0
M  V30 19 F -2.247839 -1.054729 0.599797 0
M  V30 20 F -1.869530 0.613390 -0.926369 0
M  V30 21 F -1.532246 -1.485059 -1.499346 0
M  V30 22 H -2.142559 -2.526980 3.936806 0
M  V30 23 H -1.097564 -3.938034 3.380510 0
M  V30 24 H -0.357750 -2.624641 4.373138 0
M  V30 25 H 1.874922 -4.115201 -1.741242 0
M  V30 26 H 1.639804 -4.450958 -0.021287 0
M  V30 27 H 3.126178 -3.547161 -0.589611 0
M  V30 28 H 2.068277 -1.441302 -2.527763 0
M  V30 29 H 0.769216 -0.068713 1.884863 0
M  V30 30 H 0.609768 4.328522 2.949841 0
M  V30 31 H -0.338639 5.491049 0.895893 0
M  V30 END ATOM
M  V30 BEGIN BOND
M  V30 1 1 1 2
M  V30 2 1 2 3
M  V30 3 2 3 4
M  V30 4 1 3 5
M  V30 5 2 5 6
M  V30 6 1 6 7
M  V30 7 1 6 8
M  V30 8 1 8 9
M  V30 9 2 9 10
M  V30 10 1 9 11
M  V30 11 1 11 12
M  V30 12 1 12 13
M  V30 13 2 13 14
M  V30 14 1 14 15
M  V30 15 2 15 16
M  V30 16 1 16 17
M  V30 17 1 11 18
M  V30 18 1 18 19
M  V30 19 1 18 20
M  V30 20 1 18 21
M  V30 21 1 11 5
M  V30 22 1 17 13
M  V30 23 1 1 22
M  V30 24 1 1 23
M  V30 25 1 1 24
M  V30 26 1 7 25
M  V30 27 1 7 26
M  V30 28 1 7 27
M  V30 29 1 8 28
M  V30 30 1 12 29
M  V30 31 1 15 30
M  V30 32 1 16 31
M  V30 END BOND
M  V30 END CTAB
M  END
>  <Dataset>  (369) 
ChEMBL_Kinases

>  <Ligand_Instance>  (369) 
nan

>  <PDB_ID>  (369) 
nan

>  <Standardized_SMILES>  (369) 
COC(=O)C1=C(C)NC(=O)C1(Nc1nccs1)C(F)(F)F

>  <Name>  (369) 
nan

>  <Pocket>  (369) 
nan

>  <ATP_Site>  (369) 
nan

>  <Peripheral>  (369) 
nan

>  <Num_H_Atoms_ProtBoundConf>  (369) 
nan

>  <Num_Resolved_Atoms>  (369) 
nan

>  <Num_Not_Resolved_Atoms>  (369) 
nan

$$$$
CHEMBL1442458
     RDKit          3D

  0  0  0  0  0  0  0  0  0  0999 V3000
M  V30 BEGIN CTAB
M  V30 COUNTS 51 54 0 0 0
M  V30 BEGIN ATOM
M  V30 1 C 2.333408 -1.669414 4.769110 0
M  V30 2 N 3.654273 -2.204918 4.493287 0
M  V30 3 C 4.313556 -2.973885 5.538783 0
M  V30 4 C 4.383525 -2.041112 3.259175 0
M  V30 5 O 5.528366 -2.501918 3.010296 0
M  V30 6 C 3.682349 -1.258614 2.234254 0
M  V30 7 C 2.547700 -1.896266 1.774908 0
M  V30 8 C 1.742554 -1.306416 0.793757 0
M  V30 9 C 2.124872 -0.073635 0.308563 0
M  V30 10 C 1.439649 0.732712 -0.719140 0
M  V30 11 C 2.077679 1.588894 -1.592749 0
M  V30 12 C 1.325059 2.308554 -2.531068 0
M  V30 13 C -0.048343 2.129927 -2.544949 0
M  V30 14 N -0.783365 2.832511 -3.457218 0
M  V30 15 C -2.140199 2.676650 -3.491159 0
M  V30 16 N -2.788065 1.843487 -2.646575 0
M  V30 17 C -2.102644 1.121468 -1.720634 0
M  V30 18 N -2.729869 0.224802 -0.816048 0
M  V30 19 C -2.806995 0.069846 0.622156 0
M  V30 20 C -3.460609 -0.737394 -1.645106 0
M  V30 21 C -4.131997 -1.772318 -0.808950 0
M  V30 22 C -5.384361 -1.797262 -0.243131 0
M  V30 23 C -5.576514 -2.971112 0.453557 0
M  V30 24 C -4.363440 -3.643775 0.268637 0
M  V30 25 O -3.575650 -2.904103 -0.464680 0
M  V30 26 C -0.734031 1.290237 -1.698351 0
M  V30 27 C 0.048099 0.592402 -0.780001 0
M  V30 28 C 3.261244 0.552520 0.776394 0
M  V30 29 C 4.064735 -0.024481 1.748282 0
M  V30 30 H 2.316737 -1.410275 5.853237 0
M  V30 31 H 2.134217 -0.730375 4.198987 0
M  V30 32 H 1.519175 -2.377513 4.490351 0
M  V30 33 H 4.011471 -4.032985 5.388724 0
M  V30 34 H 4.007907 -2.609847 6.543858 0
M  V30 35 H 5.423091 -2.905839 5.407593 0
M  V30 36 H 2.171505 -2.857978 2.095734 0
M  V30 37 H 0.838453 -1.704292 0.359713 0
M  V30 38 H 3.154841 1.673748 -1.518261 0
M  V30 39 H 1.833331 2.979117 -3.213444 0
M  V30 40 H -2.780443 3.200815 -4.186898 0
M  V30 41 H -2.415215 -0.933178 0.963447 0
M  V30 42 H -3.879586 0.047218 0.974740 0
M  V30 43 H -2.349708 0.905725 1.165712 0
M  V30 44 H -4.279274 -0.234981 -2.203921 0
M  V30 45 H -2.804232 -1.220589 -2.388524 0
M  V30 46 H -6.116277 -0.989861 -0.339436 0
M  V30 47 H -6.428095 -3.322465 1.013608 0
M  V30 48 H -4.175024 -4.625096 0.696769 0
M  V30 49 H -0.450377 -0.072896 -0.101739 0
M  V30 50 H 3.644907 1.529509 0.452415 0
M  V30 51 H 4.969313 0.377943 2.180597 0
M  V30 END ATOM
M  V30 BEGIN BOND
M  V30 1 1 1 2
M  V30 2 1 2 3
M  V30 3 1 2 4
M  V30 4 2 4 5
M  V30 5 1 4 6
M  V30 6 2 6 7
M  V30 7 1 7 8
M  V30 8 2 8 9
M  V30 9 1 9 10
M  V30 10 2 10 11
M  V30 11 1 11 12
M  V30 12 2 12 13
M  V30 13 1 13 14
M  V30 14 2 14 15
M  V30 15 1 15 16
M  V30 16 2 16 17
M  V30 17 1 17 18
M  V30 18 1 18 19
M  V30 19 1 18 20
M  V30 20 1 20 21
M  V30 21 2 21 22
M  V30 22 1 22 23
M  V30 23 2 23 24
M  V30 24 1 24 25
M  V30 25 1 17 26
M  V30 26 2 26 27
M  V30 27 1 9 28
M  V30 28 2 28 29
M  V30 29 1 29 6
M  V30 30 1 27 10
M  V30 31 1 26 13
M  V30 32 1 25 21
M  V30 33 1 1 30
M  V30 34 1 1 31
M  V30 35 1 1 32
M  V30 36 1 3 33
M  V30 37 1 3 34
M  V30 38 1 3 35
M  V30 39 1 7 36
M  V30 40 1 8 37
M  V30 41 1 11 38
M  V30 42 1 12 39
M  V30 43 1 15 40
M  V30 44 1 19 41
M  V30 45 1 19 42
M  V30 46 1 19 43
M  V30 47 1 20 44
M  V30 48 1 20 45
M  V30 49 1 22 46
M  V30 50 1 23 47
M  V30 51 1 24 48
M  V30 52 1 27 49
M  V30 53 1 28 50
M  V30 54 1 29 51
M  V30 END BOND
M  V30 END CTAB
M  END
>  <Dataset>  (370) 
ChEMBL_Kinases

>  <Ligand_Instance>  (370) 
nan

>  <PDB_ID>  (370) 
nan

>  <Standardized_SMILES>  (370) 
CN(C)C(=O)c1ccc(-c2ccc3ncnc(N(C)Cc4ccco4)c3c2)cc1

>  <Name>  (370) 
nan

>  <Pocket>  (370) 
nan

>  <ATP_Site>  (370) 
nan

>  <Peripheral>  (370) 
nan

>  <Num_H_Atoms_ProtBoundConf>  (370) 
nan

>  <Num_Resolved_Atoms>  (370) 
nan

>  <Num_Not_Resolved_Atoms>  (370) 
nan

$$$$
CHEMBL1442631
     RDKit          3D

  0  0  0  0  0  0  0  0  0  0999 V3000
M  V30 BEGIN CTAB
M  V30 COUNTS 51 52 0 0 0
M  V30 BEGIN ATOM
M  V30 1 C -1.627013 -6.063202 -1.963086 0
M  V30 2 O -0.288293 -5.714315 -1.836778 0
M  V30 3 C 0.277957 -4.475381 -1.834694 0
M  V30 4 C -0.553904 -3.376431 -1.975172 0
M  V30 5 C -0.021621 -2.093753 -1.978727 0
M  V30 6 C 1.345556 -1.973667 -1.838496 0
M  V30 7 N 1.968843 -0.676199 -1.833107 0
M  V30 8 C 2.126189 -0.006912 -0.567916 0
M  V30 9 O 1.647156 -0.764122 0.315138 0
M  V30 10 C 2.787148 1.322154 -0.734654 0
M  V30 11 O 2.891052 1.888266 0.560718 0
M  V30 12 C 1.737517 2.121063 1.292601 0
M  V30 13 O 0.817192 1.726478 0.530721 0
M  V30 14 C 1.856964 2.717973 2.656958 0
M  V30 15 C 0.489939 2.887161 3.274576 0
M  V30 16 N -0.361352 3.757449 2.483762 0
M  V30 17 S -1.863827 3.821825 3.349170 0
M  V30 18 O -2.770899 4.748724 2.605650 0
M  V30 19 O -1.531777 4.305406 4.733282 0
M  V30 20 C -2.603524 2.258382 3.478204 0
M  V30 21 C -3.470877 1.876049 2.479981 0
M  V30 22 C -4.147718 0.673306 2.417340 0
M  V30 23 C -3.917577 -0.210375 3.462475 0
M  V30 24 C -3.053308 0.123589 4.494377 0
M  V30 25 C -2.418603 1.334613 4.487261 0
M  V30 26 C 2.159843 -3.077151 -1.699699 0
M  V30 27 C 1.636786 -4.361790 -1.695064 0
M  V30 28 O 2.396010 -5.504366 -1.560303 0
M  V30 29 C 3.802217 -5.491247 -1.410849 0
M  V30 30 H -1.924383 -6.934036 -1.343348 0
M  V30 31 H -2.359854 -5.271497 -1.730743 0
M  V30 32 H -1.812510 -6.347833 -3.026984 0
M  V30 33 H -1.630188 -3.400690 -2.088831 0
M  V30 34 H -0.626837 -1.216689 -2.084577 0
M  V30 35 H 2.225440 -0.409411 -2.818055 0
M  V30 36 H 2.190141 1.970165 -1.413429 0
M  V30 37 H 3.777878 1.166119 -1.183324 0
M  V30 38 H 2.337051 3.708724 2.625113 0
M  V30 39 H 2.450633 2.064028 3.314293 0
M  V30 40 H 0.581103 3.283413 4.286571 0
M  V30 41 H -0.014013 1.880793 3.334244 0
M  V30 42 H -0.583489 3.269699 1.587684 0
M  V30 43 H -3.673568 2.548102 1.643720 0
M  V30 44 H -4.818584 0.437303 1.597871 0
M  V30 45 H -4.438585 -1.166273 3.438166 0
M  V30 46 H -2.871248 -0.561947 5.310537 0
M  V30 47 H -1.723810 1.647433 5.281668 0
M  V30 48 H 3.227506 -2.948386 -1.591881 0
M  V30 49 H 4.323305 -5.618207 -2.387236 0
M  V30 50 H 4.200904 -4.605297 -0.909026 0
M  V30 51 H 4.100736 -6.395748 -0.811444 0
M  V30 END ATOM
M  V30 BEGIN BOND
M  V30 1 1 1 2
M  V30 2 1 2 3
M  V30 3 2 3 4
M  V30 4 1 4 5
M  V30 5 2 5 6
M  V30 6 1 6 7
M  V30 7 1 7 8
M  V30 8 2 8 9
M  V30 9 1 8 10
M  V30 10 1 10 11
M  V30 11 1 11 12
M  V30 12 2 12 13
M  V30 13 1 12 14
M  V30 14 1 14 15
M  V30 15 1 15 16
M  V30 16 1 16 17
M  V30 17 2 17 18
M  V30 18 2 17 19
M  V30 19 1 17 20
M  V30 20 2 20 21
M  V30 21 1 21 22
M  V30 22 2 22 23
M  V30 23 1 23 24
M  V30 24 2 24 25
M  V30 25 1 6 26
M  V30 26 2 26 27
M  V30 27 1 27 28
M  V30 28 1 28 29
M  V30 29 1 27 3
M  V30 30 1 25 20
M  V30 31 1 1 30
M  V30 32 1 1 31
M  V30 33 1 1 32
M  V30 34 1 4 33
M  V30 35 1 5 34
M  V30 36 1 7 35
M  V30 37 1 10 36
M  V30 38 1 10 37
M  V30 39 1 14 38
M  V30 40 1 14 39
M  V30 41 1 15 40
M  V30 42 1 15 41
M  V30 43 1 16 42
M  V30 44 1 21 43
M  V30 45 1 22 44
M  V30 46 1 23 45
M  V30 47 1 24 46
M  V30 48 1 25 47
M  V30 49 1 26 48
M  V30 50 1 29 49
M  V30 51 1 29 50
M  V30 52 1 29 51
M  V30 END BOND
M  V30 END CTAB
M  END
>  <Dataset>  (371) 
ChEMBL_Kinases

>  <Ligand_Instance>  (371) 
nan

>  <PDB_ID>  (371) 
nan

>  <Standardized_SMILES>  (371) 
COc1ccc(NC(=O)COC(=O)CCNS(=O)(=O)c2ccccc2)cc1OC

>  <Name>  (371) 
nan

>  <Pocket>  (371) 
nan

>  <ATP_Site>  (371) 
nan

>  <Peripheral>  (371) 
nan

>  <Num_H_Atoms_ProtBoundConf>  (371) 
nan

>  <Num_Resolved_Atoms>  (371) 
nan

>  <Num_Not_Resolved_Atoms>  (371) 
nan

$$$$
CHEMBL1442663
     RDKit          3D

  0  0  0  0  0  0  0  0  0  0999 V3000
M  V30 BEGIN CTAB
M  V30 COUNTS 28 30 0 0 0
M  V30 BEGIN ATOM
M  V30 1 O 0.537969 -2.280937 1.582830 0
M  V30 2 C -0.528693 -1.738382 2.012461 0
M  V30 3 N -0.504828 -0.344260 2.081629 0
M  V30 4 C 0.766116 0.230936 1.638165 0
M  V30 5 N 1.148231 0.589560 0.573426 0
M  V30 6 C 2.315690 1.096883 0.271722 0
M  V30 7 C 2.721247 1.520748 -1.074979 0
M  V30 8 C 2.003322 1.475707 -2.228396 0
M  V30 9 C 2.611817 1.934725 -3.361334 0
M  V30 10 C 3.904486 2.411867 -3.270710 0
M  V30 11 Cl 4.928905 3.053548 -4.520607 0
M  V30 12 S 4.253170 2.187183 -1.474018 0
M  V30 13 C 3.215309 1.222815 1.368536 0
M  V30 14 S 2.152887 0.536795 2.768446 0
M  V30 15 C -1.683068 -2.554840 2.398795 0
M  V30 16 C -2.841621 -1.971584 2.865110 0
M  V30 17 C -3.838951 -2.855338 3.188906 0
M  V30 18 N -3.791814 -4.207927 3.095495 0
M  V30 19 C -2.638666 -4.773845 2.632171 0
M  V30 20 C -1.587208 -3.926915 2.286054 0
M  V30 21 H -1.322060 0.178510 2.416786 0
M  V30 22 H 0.994592 1.087118 -2.217609 0
M  V30 23 H 2.128846 1.947185 -4.351715 0
M  V30 24 H 4.312869 1.636037 1.404523 0
M  V30 25 H -2.951479 -0.919287 2.965168 0
M  V30 26 H -4.803249 -2.505674 3.569433 0
M  V30 27 H -2.602437 -5.849708 2.558338 0
M  V30 28 H -0.695776 -4.433905 1.923983 0
M  V30 END ATOM
M  V30 BEGIN BOND
M  V30 1 2 1 2
M  V30 2 1 2 3
M  V30 3 1 3 4
M  V30 4 2 4 5
M  V30 5 1 5 6
M  V30 6 1 6 7
M  V30 7 2 7 8
M  V30 8 1 8 9
M  V30 9 2 9 10
M  V30 10 1 10 11
M  V30 11 1 10 12
M  V30 12 2 6 13
M  V30 13 1 13 14
M  V30 14 1 2 15
M  V30 15 2 15 16
M  V30 16 1 16 17
M  V30 17 2 17 18
M  V30 18 1 18 19
M  V30 19 2 19 20
M  V30 20 1 14 4
M  V30 21 1 20 15
M  V30 22 1 12 7
M  V30 23 1 3 21
M  V30 24 1 8 22
M  V30 25 1 9 23
M  V30 26 1 13 24
M  V30 27 1 16 25
M  V30 28 1 17 26
M  V30 29 1 19 27
M  V30 30 1 20 28
M  V30 END BOND
M  V30 END CTAB
M  END
>  <Dataset>  (372) 
ChEMBL_Kinases

>  <Ligand_Instance>  (372) 
nan

>  <PDB_ID>  (372) 
nan

>  <Standardized_SMILES>  (372) 
O=C(Nc1nc(-c2ccc(Cl)s2)cs1)c1ccncc1

>  <Name>  (372) 
nan

>  <Pocket>  (372) 
nan

>  <ATP_Site>  (372) 
nan

>  <Peripheral>  (372) 
nan

>  <Num_H_Atoms_ProtBoundConf>  (372) 
nan

>  <Num_Resolved_Atoms>  (372) 
nan

>  <Num_Not_Resolved_Atoms>  (372) 
nan

$$$$
CHEMBL1442683
     RDKit          3D

  0  0  0  0  0  0  0  0  0  0999 V3000
M  V30 BEGIN CTAB
M  V30 COUNTS 44 47 0 0 0
M  V30 BEGIN ATOM
M  V30 1 O 1.863216 -1.592349 -0.299187 0
M  V30 2 C 2.436670 -0.765984 0.440896 0
M  V30 3 O 3.644977 -1.017394 0.999150 0
M  V30 4 C 4.470421 -2.135762 0.900075 0
M  V30 5 C 4.874751 -2.345828 -0.504559 0
M  V30 6 C 4.297477 -3.023878 -1.549108 0
M  V30 7 C 4.846378 -3.130135 -2.791605 0
M  V30 8 C 6.054076 -2.545627 -3.086046 0
M  V30 9 C 6.636261 -1.864846 -2.038427 0
M  V30 10 N 6.072462 -1.780178 -0.836601 0
M  V30 11 C 1.846955 0.543002 0.764468 0
M  V30 12 C 2.357023 1.565406 1.567138 0
M  V30 13 C 1.371489 2.524117 1.490470 0
M  V30 14 C 0.316648 2.091205 0.675336 0
M  V30 15 C -0.806368 3.047980 0.518497 0
M  V30 16 O -1.778768 2.913548 1.516357 0
M  V30 17 C -2.520469 1.800850 1.745242 0
M  V30 18 C -3.365147 2.067933 2.833393 0
M  V30 19 C -4.264562 1.109620 3.320898 0
M  V30 20 C -4.327758 -0.141655 2.715722 0
M  V30 21 C -5.174064 -1.150852 3.116663 0
M  V30 22 C -5.161435 -2.354831 2.452265 0
M  V30 23 C -4.323652 -2.618948 1.373121 0
M  V30 24 C -3.462613 -1.605275 0.958130 0
M  V30 25 C -3.499624 -0.407465 1.646451 0
M  V30 26 C -2.624774 0.548893 1.185069 0
M  V30 27 O 0.691632 0.917072 0.297861 0
M  V30 28 H 5.378432 -2.045835 1.545867 0
M  V30 29 H 3.940576 -3.058352 1.272325 0
M  V30 30 H 3.359576 -3.501366 -1.318928 0
M  V30 31 H 4.290617 -3.691466 -3.527601 0
M  V30 32 H 6.447598 -2.657633 -4.083718 0
M  V30 33 H 7.602243 -1.385762 -2.238109 0
M  V30 34 H 3.291445 1.516162 2.071795 0
M  V30 35 H 1.546987 3.454237 2.057222 0
M  V30 36 H -0.456891 4.116007 0.477469 0
M  V30 37 H -1.288942 2.778367 -0.467883 0
M  V30 38 H -3.468135 2.964484 3.432691 0
M  V30 39 H -4.942897 1.216194 4.136484 0
M  V30 40 H -5.819686 -0.937603 3.953529 0
M  V30 41 H -5.828266 -3.149927 2.768222 0
M  V30 42 H -4.368584 -3.592357 0.897602 0
M  V30 43 H -2.802046 -1.784126 0.123133 0
M  V30 44 H -1.955343 0.439534 0.365821 0
M  V30 END ATOM
M  V30 BEGIN BOND
M  V30 1 2 1 2
M  V30 2 1 2 3
M  V30 3 1 3 4
M  V30 4 1 4 5
M  V30 5 2 5 6
M  V30 6 1 6 7
M  V30 7 2 7 8
M  V30 8 1 8 9
M  V30 9 2 9 10
M  V30 10 1 2 11
M  V30 11 2 11 12
M  V30 12 1 12 13
M  V30 13 2 13 14
M  V30 14 1 14 15
M  V30 15 1 15 16
M  V30 16 1 16 17
M  V30 17 2 17 18
M  V30 18 1 18 19
M  V30 19 2 19 20
M  V30 20 1 20 21
M  V30 21 2 21 22
M  V30 22 1 22 23
M  V30 23 2 23 24
M  V30 24 1 24 25
M  V30 25 2 25 26
M  V30 26 1 14 27
M  V30 27 1 10 5
M  V30 28 1 27 11
M  V30 29 1 26 17
M  V30 30 1 25 20
M  V30 31 1 4 28
M  V30 32 1 4 29
M  V30 33 1 6 30
M  V30 34 1 7 31
M  V30 35 1 8 32
M  V30 36 1 9 33
M  V30 37 1 12 34
M  V30 38 1 13 35
M  V30 39 1 15 36
M  V30 40 1 15 37
M  V30 41 1 18 38
M  V30 42 1 19 39
M  V30 43 1 21 40
M  V30 44 1 22 41
M  V30 45 1 23 42
M  V30 46 1 24 43
M  V30 47 1 26 44
M  V30 END BOND
M  V30 END CTAB
M  END
>  <Dataset>  (373) 
ChEMBL_Kinases

>  <Ligand_Instance>  (373) 
nan

>  <PDB_ID>  (373) 
nan

>  <Standardized_SMILES>  (373) 
O=C(OCc1ccccn1)c1ccc(COc2ccc3ccccc3c2)o1

>  <Name>  (373) 
nan

>  <Pocket>  (373) 
nan

>  <ATP_Site>  (373) 
nan

>  <Peripheral>  (373) 
nan

>  <Num_H_Atoms_ProtBoundConf>  (373) 
nan

>  <Num_Resolved_Atoms>  (373) 
nan

>  <Num_Not_Resolved_Atoms>  (373) 
nan

$$$$
CHEMBL1442736
     RDKit          3D

  0  0  0  0  0  0  0  0  0  0999 V3000
M  V30 BEGIN CTAB
M  V30 COUNTS 49 52 0 0 0
M  V30 BEGIN ATOM
M  V30 1 C -0.176957 -4.676325 -1.983553 0
M  V30 2 C 0.465118 -3.406894 -2.518028 0
M  V30 3 C -0.629841 -2.404344 -2.831591 0
M  V30 4 N 1.459661 -2.896840 -1.602180 0
M  V30 5 C 0.947931 -2.480951 -0.343274 0
M  V30 6 N 0.951991 -1.136699 -0.303686 0
M  V30 7 C 0.514341 -0.443814 0.758191 0
M  V30 8 N 0.400264 0.962019 1.062950 0
M  V30 9 C 1.469585 1.722530 1.603885 0
M  V30 10 C 2.161516 2.337145 0.558589 0
M  V30 11 C 3.264882 3.160401 0.831535 0
M  V30 12 C 3.675561 3.367511 2.156253 0
M  V30 13 C 2.957978 2.736759 3.160607 0
M  V30 14 C 1.883581 1.935346 2.898438 0
M  V30 15 C -0.888530 1.481744 0.770860 0
M  V30 16 C -1.166652 2.631227 1.488476 0
M  V30 17 C -2.396255 3.280051 1.312302 0
M  V30 18 C -3.238041 2.688015 0.407266 0
M  V30 19 C -2.979786 1.545003 -0.314982 0
M  V30 20 C -1.771646 0.928355 -0.124581 0
M  V30 21 N 0.042556 -1.109595 1.852951 0
M  V30 22 C 0.031268 -2.475967 1.827469 0
M  V30 23 N -0.418785 -3.377305 2.837980 0
M  V30 24 C -1.765182 -3.467957 2.981896 0
M  V30 25 C -1.979985 -4.388605 4.022355 0
M  V30 26 N -0.762977 -4.805254 4.450890 0
M  V30 27 C 0.180248 -4.184976 3.725078 0
M  V30 28 N 0.476619 -3.141934 0.747941 0
M  V30 29 H -1.161235 -4.790246 -2.475811 0
M  V30 30 H -0.347165 -4.644782 -0.902199 0
M  V30 31 H 0.424466 -5.573431 -2.289485 0
M  V30 32 H 0.949702 -3.664444 -3.477978 0
M  V30 33 H -1.275153 -2.867949 -3.634752 0
M  V30 34 H -0.238117 -1.454850 -3.210400 0
M  V30 35 H -1.330177 -2.240598 -1.986408 0
M  V30 36 H 2.487972 -2.798625 -1.751000 0
M  V30 37 H 1.974738 2.284659 -0.525937 0
M  V30 38 H 3.896419 3.700762 0.143510 0
M  V30 39 H 4.514502 3.986116 2.445212 0
M  V30 40 H 3.233996 2.864140 4.197252 0
M  V30 41 H 1.261967 1.401354 3.594967 0
M  V30 42 H -0.488574 3.100192 2.216223 0
M  V30 43 H -2.629501 4.172490 1.867093 0
M  V30 44 H -4.186922 3.174419 0.266302 0
M  V30 45 H -3.643378 1.083296 -1.025425 0
M  V30 46 H -1.384700 0.013717 -0.608974 0
M  V30 47 H -2.692901 -3.090441 2.588133 0
M  V30 48 H -2.740290 -4.896426 4.617303 0
M  V30 49 H 1.258789 -4.245450 3.763937 0
M  V30 END ATOM
M  V30 BEGIN BOND
M  V30 1 1 1 2
M  V30 2 1 2 3
M  V30 3 1 2 4
M  V30 4 1 4 5
M  V30 5 2 5 6
M  V30 6 1 6 7
M  V30 7 1 7 8
M  V30 8 1 8 9
M  V30 9 2 9 10
M  V30 10 1 10 11
M  V30 11 2 11 12
M  V30 12 1 12 13
M  V30 13 2 13 14
M  V30 14 1 8 15
M  V30 15 2 15 16
M  V30 16 1 16 17
M  V30 17 2 17 18
M  V30 18 1 18 19
M  V30 19 2 19 20
M  V30 20 2 7 21
M  V30 21 1 21 22
M  V30 22 1 22 23
M  V30 23 1 23 24
M  V30 24 2 24 25
M  V30 25 1 25 26
M  V30 26 2 26 27
M  V30 27 2 22 28
M  V30 28 1 28 5
M  V30 29 1 14 9
M  V30 30 1 20 15
M  V30 31 1 27 23
M  V30 32 1 1 29
M  V30 33 1 1 30
M  V30 34 1 1 31
M  V30 35 1 2 32
M  V30 36 1 3 33
M  V30 37 1 3 34
M  V30 38 1 3 35
M  V30 39 1 4 36
M  V30 40 1 10 37
M  V30 41 1 11 38
M  V30 42 1 12 39
M  V30 43 1 13 40
M  V30 44 1 14 41
M  V30 45 1 16 42
M  V30 46 1 17 43
M  V30 47 1 18 44
M  V30 48 1 19 45
M  V30 49 1 20 46
M  V30 50 1 24 47
M  V30 51 1 25 48
M  V30 52 1 27 49
M  V30 END BOND
M  V30 END CTAB
M  END
>  <Dataset>  (374) 
ChEMBL_Kinases

>  <Ligand_Instance>  (374) 
nan

>  <PDB_ID>  (374) 
nan

>  <Standardized_SMILES>  (374) 
CC(C)Nc1nc(N(c2ccccc2)c2ccccc2)nc(-n2ccnc2)n1

>  <Name>  (374) 
nan

>  <Pocket>  (374) 
nan

>  <ATP_Site>  (374) 
nan

>  <Peripheral>  (374) 
nan

>  <Num_H_Atoms_ProtBoundConf>  (374) 
nan

>  <Num_Resolved_Atoms>  (374) 
nan

>  <Num_Not_Resolved_Atoms>  (374) 
nan

$$$$
CHEMBL1442840
     RDKit          3D

  0  0  0  0  0  0  0  0  0  0999 V3000
M  V30 BEGIN CTAB
M  V30 COUNTS 32 34 0 0 0
M  V30 BEGIN ATOM
M  V30 1 C -0.268739 -4.878386 4.080044 0
M  V30 2 C 0.732865 -4.687903 3.143539 0
M  V30 3 C 0.980359 -3.455949 2.570400 0
M  V30 4 C 0.194710 -2.388138 2.953931 0
M  V30 5 C 0.263811 -0.999729 2.492684 0
M  V30 6 N 0.399419 0.125219 3.245173 0
M  V30 7 O 0.417836 1.144187 2.449948 0
M  V30 8 C 0.301664 0.775845 1.188507 0
M  V30 9 C 0.286958 1.713766 0.008790 0
M  V30 10 C -1.079610 1.682459 -0.588160 0
M  V30 11 C -1.133787 0.484705 -1.535805 0
M  V30 12 C -0.248469 0.911546 -2.704065 0
M  V30 13 C 1.162074 0.868286 -2.215096 0
M  V30 14 C 1.427347 1.500882 -0.906280 0
M  V30 15 N 0.204025 -0.573841 1.205902 0
M  V30 16 N -0.793401 -2.542326 3.868092 0
M  V30 17 C -1.035283 -3.761372 4.432568 0
M  V30 18 H -0.430897 -5.852579 4.503735 0
M  V30 19 H 1.377975 -5.501590 2.810418 0
M  V30 20 H 1.724417 -3.210976 1.844853 0
M  V30 21 H 0.395103 2.735182 0.478989 0
M  V30 22 H -1.282545 2.601908 -1.139525 0
M  V30 23 H -1.817237 1.470901 0.214397 0
M  V30 24 H -0.586980 -0.379502 -1.066794 0
M  V30 25 H -2.149895 0.246893 -1.858352 0
M  V30 26 H -0.589054 1.931268 -3.013297 0
M  V30 27 H -0.366329 0.175268 -3.517247 0
M  V30 28 H 1.476475 -0.207897 -2.252736 0
M  V30 29 H 1.792906 1.346262 -3.020195 0
M  V30 30 H 2.161275 0.828862 -0.371359 0
M  V30 31 H 2.010881 2.452060 -1.067586 0
M  V30 32 H -1.829988 -3.899604 5.171903 0
M  V30 END ATOM
M  V30 BEGIN BOND
M  V30 1 2 1 2
M  V30 2 1 2 3
M  V30 3 2 3 4
M  V30 4 1 4 5
M  V30 5 2 5 6
M  V30 6 1 6 7
M  V30 7 1 7 8
M  V30 8 1 8 9
M  V30 9 1 9 10
M  V30 10 1 10 11
M  V30 11 1 11 12
M  V30 12 1 12 13
M  V30 13 1 13 14
M  V30 14 2 8 15
M  V30 15 1 4 16
M  V30 16 2 16 17
M  V30 17 1 17 1
M  V30 18 1 15 5
M  V30 19 1 14 9
M  V30 20 1 1 18
M  V30 21 1 2 19
M  V30 22 1 3 20
M  V30 23 1 9 21
M  V30 24 1 10 22
M  V30 25 1 10 23
M  V30 26 1 11 24
M  V30 27 1 11 25
M  V30 28 1 12 26
M  V30 29 1 12 27
M  V30 30 1 13 28
M  V30 31 1 13 29
M  V30 32 1 14 30
M  V30 33 1 14 31
M  V30 34 1 17 32
M  V30 END BOND
M  V30 END CTAB
M  END
>  <Dataset>  (375) 
ChEMBL_Kinases

>  <Ligand_Instance>  (375) 
nan

>  <PDB_ID>  (375) 
nan

>  <Standardized_SMILES>  (375) 
c1ccc(-c2noc(C3CCCCC3)n2)nc1

>  <Name>  (375) 
nan

>  <Pocket>  (375) 
nan

>  <ATP_Site>  (375) 
nan

>  <Peripheral>  (375) 
nan

>  <Num_H_Atoms_ProtBoundConf>  (375) 
nan

>  <Num_Resolved_Atoms>  (375) 
nan

>  <Num_Not_Resolved_Atoms>  (375) 
nan

$$$$
CHEMBL1442309
     RDKit          3D

  0  0  0  0  0  0  0  0  0  0999 V3000
M  V30 BEGIN CTAB
M  V30 COUNTS 49 52 0 0 0
M  V30 BEGIN ATOM
M  V30 1 C -1.476443 -0.956010 0.168413 0
M  V30 2 C -1.289194 -1.488645 1.526237 0
M  V30 3 C -0.461481 -0.982914 2.501293 0
M  V30 4 C 0.427299 0.170172 2.444034 0
M  V30 5 O -0.318850 1.138386 2.812549 0
M  V30 6 N 1.802155 0.468891 2.110232 0
M  V30 7 C 2.117077 1.856827 2.239957 0
M  V30 8 C 1.945172 2.689686 1.056973 0
M  V30 9 C 3.042883 2.836826 0.200717 0
M  V30 10 C 3.057580 3.587684 -0.954983 0
M  V30 11 C 1.924287 4.250229 -1.315389 0
M  V30 12 C 0.801901 4.153353 -0.521584 0
M  V30 13 C 0.843933 3.390599 0.619801 0
M  V30 14 C 2.635407 -0.636202 1.733631 0
M  V30 15 C 2.662898 -0.962637 0.297875 0
M  V30 16 C 1.849424 -1.815195 -0.396477 0
M  V30 17 C 2.058959 -1.982111 -1.740237 0
M  V30 18 C 3.064038 -1.312333 -2.392575 0
M  V30 19 S 3.793806 -0.337715 -0.942520 0
M  V30 20 C -0.603671 -1.801719 3.627498 0
M  V30 21 N -1.494980 -2.755271 3.299388 0
M  V30 22 N -1.902564 -2.563463 2.039968 0
M  V30 23 C -2.849488 -3.410956 1.398748 0
M  V30 24 C -4.050148 -3.508321 2.105543 0
M  V30 25 C -5.095629 -4.283514 1.647203 0
M  V30 26 C -4.975887 -4.986911 0.467630 0
M  V30 27 Cl -6.287004 -5.972087 -0.127427 0
M  V30 28 C -3.775836 -4.883177 -0.228823 0
M  V30 29 C -2.730343 -4.115395 0.217983 0
M  V30 30 H -2.565797 -0.807524 -0.027375 0
M  V30 31 H -1.098856 -1.615562 -0.641212 0
M  V30 32 H -0.998930 0.031600 0.028038 0
M  V30 33 H 1.519754 2.350155 3.062644 0
M  V30 34 H 3.176802 1.931447 2.582346 0
M  V30 35 H 3.967971 2.331746 0.440301 0
M  V30 36 H 3.948986 3.650082 -1.563091 0
M  V30 37 H 1.832232 4.862988 -2.198799 0
M  V30 38 H -0.133873 4.665424 -0.765685 0
M  V30 39 H -0.038142 3.322304 1.238586 0
M  V30 40 H 3.672945 -0.370106 2.074089 0
M  V30 41 H 2.407192 -1.559058 2.348028 0
M  V30 42 H 1.059358 -2.349447 0.107910 0
M  V30 43 H 1.490896 -2.621836 -2.400561 0
M  V30 44 H 3.449476 -1.227676 -3.321101 0
M  V30 45 H -0.105944 -1.709682 4.589345 0
M  V30 46 H -4.255176 -3.001363 3.040565 0
M  V30 47 H -6.034441 -4.376649 2.173412 0
M  V30 48 H -3.635896 -5.417107 -1.159260 0
M  V30 49 H -1.780953 -3.985263 -0.258241 0
M  V30 END ATOM
M  V30 BEGIN BOND
M  V30 1 1 1 2
M  V30 2 2 2 3
M  V30 3 1 3 4
M  V30 4 2 4 5
M  V30 5 1 4 6
M  V30 6 1 6 7
M  V30 7 1 7 8
M  V30 8 2 8 9
M  V30 9 1 9 10
M  V30 10 2 10 11
M  V30 11 1 11 12
M  V30 12 2 12 13
M  V30 13 1 6 14
M  V30 14 1 14 15
M  V30 15 2 15 16
M  V30 16 1 16 17
M  V30 17 2 17 18
M  V30 18 1 18 19
M  V30 19 1 3 20
M  V30 20 2 20 21
M  V30 21 1 21 22
M  V30 22 1 22 23
M  V30 23 2 23 24
M  V30 24 1 24 25
M  V30 25 2 25 26
M  V30 26 1 26 27
M  V30 27 1 26 28
M  V30 28 2 28 29
M  V30 29 1 22 2
M  V30 30 1 29 23
M  V30 31 1 13 8
M  V30 32 1 19 15
M  V30 33 1 1 30
M  V30 34 1 1 31
M  V30 35 1 1 32
M  V30 36 1 7 33
M  V30 37 1 7 34
M  V30 38 1 9 35
M  V30 39 1 10 36
M  V30 40 1 11 37
M  V30 41 1 12 38
M  V30 42 1 13 39
M  V30 43 1 14 40
M  V30 44 1 14 41
M  V30 45 1 16 42
M  V30 46 1 17 43
M  V30 47 1 18 44
M  V30 48 1 20 45
M  V30 49 1 24 46
M  V30 50 1 25 47
M  V30 51 1 28 48
M  V30 52 1 29 49
M  V30 END BOND
M  V30 END CTAB
M  END
>  <Dataset>  (376) 
ChEMBL_Kinases

>  <Ligand_Instance>  (376) 
nan

>  <PDB_ID>  (376) 
nan

>  <Standardized_SMILES>  (376) 
Cc1c(C(=O)N(Cc2ccccc2)Cc2cccs2)cnn1-c1ccc(Cl)cc1

>  <Name>  (376) 
nan

>  <Pocket>  (376) 
nan

>  <ATP_Site>  (376) 
nan

>  <Peripheral>  (376) 
nan

>  <Num_H_Atoms_ProtBoundConf>  (376) 
nan

>  <Num_Resolved_Atoms>  (376) 
nan

>  <Num_Not_Resolved_Atoms>  (376) 
nan

$$$$
CHEMBL1448207
     RDKit          3D

  0  0  0  0  0  0  0  0  0  0999 V3000
M  V30 BEGIN CTAB
M  V30 COUNTS 25 26 0 0 0
M  V30 BEGIN ATOM
M  V30 1 O 1.723610 -0.236907 2.159025 0
M  V30 2 C 0.645264 0.204277 1.738599 0
M  V30 3 N 0.219770 -0.390717 0.518623 0
M  V30 4 C 0.773581 -1.392510 -0.327976 0
M  V30 5 C 0.428221 -2.727216 -0.087572 0
M  V30 6 C 0.905340 -3.782338 -0.845114 0
M  V30 7 C 1.762845 -3.443125 -1.878560 0
M  V30 8 Cl 2.416133 -4.731362 -2.892878 0
M  V30 9 C 2.144158 -2.154855 -2.171198 0
M  V30 10 C 1.635296 -1.125083 -1.377275 0
M  V30 11 C -0.210796 1.226735 2.326176 0
M  V30 12 C -1.411767 1.721718 1.862812 0
M  V30 13 C -2.064490 2.702743 2.586950 0
M  V30 14 N -1.582560 3.204818 3.733375 0
M  V30 15 C -0.412405 2.720628 4.182233 0
M  V30 16 C 0.299756 1.736219 3.509967 0
M  V30 17 H -0.653356 -0.170165 -0.009088 0
M  V30 18 H -0.257472 -2.923387 0.749799 0
M  V30 19 H 0.611870 -4.786486 -0.621753 0
M  V30 20 H 2.813481 -1.899327 -2.979193 0
M  V30 21 H 1.880593 -0.065706 -1.531670 0
M  V30 22 H -1.735493 1.274467 0.941964 0
M  V30 23 H -3.001855 2.993229 2.093904 0
M  V30 24 H -0.079212 3.178356 5.126468 0
M  V30 25 H 1.234933 1.461357 4.022345 0
M  V30 END ATOM
M  V30 BEGIN BOND
M  V30 1 2 1 2
M  V30 2 1 2 3
M  V30 3 1 3 4
M  V30 4 2 4 5
M  V30 5 1 5 6
M  V30 6 2 6 7
M  V30 7 1 7 8
M  V30 8 1 7 9
M  V30 9 2 9 10
M  V30 10 1 2 11
M  V30 11 2 11 12
M  V30 12 1 12 13
M  V30 13 2 13 14
M  V30 14 1 14 15
M  V30 15 2 15 16
M  V30 16 1 10 4
M  V30 17 1 16 11
M  V30 18 1 3 17
M  V30 19 1 5 18
M  V30 20 1 6 19
M  V30 21 1 9 20
M  V30 22 1 10 21
M  V30 23 1 12 22
M  V30 24 1 13 23
M  V30 25 1 15 24
M  V30 26 1 16 25
M  V30 END BOND
M  V30 END CTAB
M  END
>  <Dataset>  (377) 
ChEMBL_Kinases

>  <Ligand_Instance>  (377) 
nan

>  <PDB_ID>  (377) 
nan

>  <Standardized_SMILES>  (377) 
O=C(Nc1ccc(Cl)cc1)c1ccncc1

>  <Name>  (377) 
nan

>  <Pocket>  (377) 
nan

>  <ATP_Site>  (377) 
nan

>  <Peripheral>  (377) 
nan

>  <Num_H_Atoms_ProtBoundConf>  (377) 
nan

>  <Num_Resolved_Atoms>  (377) 
nan

>  <Num_Not_Resolved_Atoms>  (377) 
nan

$$$$
CHEMBL1448138
     RDKit          3D

  0  0  0  0  0  0  0  0  0  0999 V3000
M  V30 BEGIN CTAB
M  V30 COUNTS 43 47 0 0 0
M  V30 BEGIN ATOM
M  V30 1 O 3.045651 -1.356227 1.168468 0
M  V30 2 C 2.188697 -0.605233 0.639389 0
M  V30 3 C 2.557266 0.313450 -0.323793 0
M  V30 4 C 3.956850 0.408470 -0.727019 0
M  V30 5 C 4.969336 0.417077 0.233964 0
M  V30 6 C 6.271403 0.509448 -0.223869 0
M  V30 7 C 6.631450 0.592699 -1.552633 0
M  V30 8 C 5.592325 0.581423 -2.488026 0
M  V30 9 C 4.281491 0.490359 -2.067299 0
M  V30 10 N 1.624997 1.128413 -0.897421 0
M  V30 11 C 0.331843 1.046362 -0.530362 0
M  V30 12 C -0.677032 1.831552 -1.058357 0
M  V30 13 N -1.950441 1.693617 -0.642111 0
M  V30 14 C -2.306419 0.796424 0.297653 0
M  V30 15 O -3.599034 0.604387 0.770065 0
M  V30 16 C -3.917457 -0.336272 1.743143 0
M  V30 17 C -3.836451 0.178709 3.039675 0
M  V30 18 C -4.134659 -0.677576 4.089082 0
M  V30 19 C -4.493471 -1.979604 3.829834 0
M  V30 20 C -4.578488 -2.504361 2.557186 0
M  V30 21 C -4.280357 -1.646204 1.519762 0
M  V30 22 N -1.325922 0.010219 0.832950 0
M  V30 23 C -0.040285 0.124313 0.436840 0
M  V30 24 N 0.888899 -0.680351 1.001281 0
M  V30 25 C 0.530061 -1.658577 2.019395 0
M  V30 26 C -0.499264 -2.646750 1.651531 0
M  V30 27 C 0.916814 -3.078186 1.895519 0
M  V30 28 H 4.723473 0.353535 1.280732 0
M  V30 29 H 7.033575 0.512695 0.566881 0
M  V30 30 H 7.673464 0.662732 -1.838001 0
M  V30 31 H 5.848437 0.646580 -3.556941 0
M  V30 32 H 3.489744 0.483128 -2.808340 0
M  V30 33 H -0.409205 2.559435 -1.816102 0
M  V30 34 H -3.561858 1.183816 3.286721 0
M  V30 35 H -4.104667 -0.386387 5.132149 0
M  V30 36 H -4.730301 -2.661439 4.653199 0
M  V30 37 H -4.855469 -3.515600 2.322603 0
M  V30 38 H -4.314257 -1.952685 0.467652 0
M  V30 39 H 0.479400 -1.194861 3.027621 0
M  V30 40 H -0.868540 -2.749546 0.610072 0
M  V30 41 H -1.248341 -2.889808 2.420194 0
M  V30 42 H 1.580660 -3.370968 1.073680 0
M  V30 43 H 1.091048 -3.617588 2.851825 0
M  V30 END ATOM
M  V30 BEGIN BOND
M  V30 1 2 1 2
M  V30 2 1 2 3
M  V30 3 1 3 4
M  V30 4 2 4 5
M  V30 5 1 5 6
M  V30 6 2 6 7
M  V30 7 1 7 8
M  V30 8 2 8 9
M  V30 9 2 3 10
M  V30 10 1 10 11
M  V30 11 2 11 12
M  V30 12 1 12 13
M  V30 13 2 13 14
M  V30 14 1 14 15
M  V30 15 1 15 16
M  V30 16 2 16 17
M  V30 17 1 17 18
M  V30 18 2 18 19
M  V30 19 1 19 20
M  V30 20 2 20 21
M  V30 21 1 14 22
M  V30 22 2 22 23
M  V30 23 1 23 24
M  V30 24 1 24 25
M  V30 25 1 25 26
M  V30 26 1 26 27
M  V30 27 1 24 2
M  V30 28 1 27 25
M  V30 29 1 9 4
M  V30 30 1 23 11
M  V30 31 1 21 16
M  V30 32 1 5 28
M  V30 33 1 6 29
M  V30 34 1 7 30
M  V30 35 1 8 31
M  V30 36 1 9 32
M  V30 37 1 12 33
M  V30 38 1 17 34
M  V30 39 1 18 35
M  V30 40 1 19 36
M  V30 41 1 20 37
M  V30 42 1 21 38
M  V30 43 1 25 39
M  V30 44 1 26 40
M  V30 45 1 26 41
M  V30 46 1 27 42
M  V30 47 1 27 43
M  V30 END BOND
M  V30 END CTAB
M  END
>  <Dataset>  (378) 
ChEMBL_Kinases

>  <Ligand_Instance>  (378) 
nan

>  <PDB_ID>  (378) 
nan

>  <Standardized_SMILES>  (378) 
O=c1c(-c2ccccc2)nc2cnc(Oc3ccccc3)nc2n1C1CC1

>  <Name>  (378) 
nan

>  <Pocket>  (378) 
nan

>  <ATP_Site>  (378) 
nan

>  <Peripheral>  (378) 
nan

>  <Num_H_Atoms_ProtBoundConf>  (378) 
nan

>  <Num_Resolved_Atoms>  (378) 
nan

>  <Num_Not_Resolved_Atoms>  (378) 
nan

$$$$
CHEMBL1448077
     RDKit          3D

  0  0  0  0  0  0  0  0  0  0999 V3000
M  V30 BEGIN CTAB
M  V30 COUNTS 57 59 0 0 0
M  V30 BEGIN ATOM
M  V30 1 O 4.545569 -0.821352 1.763729 0
M  V30 2 S 3.810286 -0.081507 0.707897 0
M  V30 3 O 4.326845 -0.474813 -0.636870 0
M  V30 4 C 4.039103 1.633442 0.972522 0
M  V30 5 C 4.258826 2.242351 2.194407 0
M  V30 6 C 4.425988 3.609259 2.249111 0
M  V30 7 C 4.376175 4.376095 1.095533 0
M  V30 8 Cl 4.599071 6.123015 1.235540 0
M  V30 9 C 4.157140 3.792170 -0.145249 0
M  V30 10 C 4.104686 4.627680 -1.388052 0
M  V30 11 F 3.877664 3.811353 -2.480302 0
M  V30 12 F 2.956266 5.418454 -1.259537 0
M  V30 13 F 5.208401 5.418092 -1.501609 0
M  V30 14 C 3.992686 2.420264 -0.172463 0
M  V30 15 N 2.118114 -0.434393 0.863271 0
M  V30 16 C 1.389705 0.301934 -0.147981 0
M  V30 17 C -0.110121 0.228303 0.110910 0
M  V30 18 N -0.465209 -1.143581 0.086239 0
M  V30 19 C -1.469350 -1.468262 1.025846 0
M  V30 20 C -2.792913 -0.809991 0.556906 0
M  V30 21 O -2.504834 0.592825 0.585950 0
M  V30 22 C -3.910494 -1.034267 1.505087 0
M  V30 23 O -4.557117 -2.169959 1.529484 0
M  V30 24 C -4.197673 -3.421879 1.579194 0
M  V30 25 C -3.625496 -4.052840 0.324619 0
M  V30 26 C -4.786426 -4.308725 -0.670810 0
M  V30 27 C -4.131652 -5.356588 -1.548424 0
M  V30 28 C -2.984984 -5.860936 -0.711375 0
M  V30 29 O -3.248984 -5.384022 0.562811 0
M  V30 30 C 0.592903 -2.076606 -0.095876 0
M  V30 31 C 1.839311 -1.824774 0.681056 0
M  V30 32 H 4.284755 1.567641 3.058332 0
M  V30 33 H 4.594947 4.018707 3.240374 0
M  V30 34 H 3.824802 2.026891 -1.175490 0
M  V30 35 H 1.606243 -0.073900 -1.160088 0
M  V30 36 H 1.655755 1.369885 -0.019541 0
M  V30 37 H -0.616278 0.772774 -0.713532 0
M  V30 38 H -0.261568 0.744460 1.086161 0
M  V30 39 H -1.565768 -2.478550 1.371734 0
M  V30 40 H -1.255821 -0.863258 1.981492 0
M  V30 41 H -3.057090 -1.062929 -0.455527 0
M  V30 42 H -2.696299 0.967645 1.492942 0
M  V30 43 H -3.608947 -0.654289 2.549841 0
M  V30 44 H -4.679121 -0.209764 1.226168 0
M  V30 45 H -5.040488 -4.089991 1.967298 0
M  V30 46 H -3.421364 -3.576677 2.402894 0
M  V30 47 H -2.917902 -3.467826 -0.240209 0
M  V30 48 H -5.681511 -4.656362 -0.148935 0
M  V30 49 H -4.967897 -3.402250 -1.268139 0
M  V30 50 H -3.685280 -4.869059 -2.450614 0
M  V30 51 H -4.875193 -6.123681 -1.797485 0
M  V30 52 H -2.932880 -6.983823 -0.717105 0
M  V30 53 H -1.995723 -5.480493 -1.053048 0
M  V30 54 H 0.861349 -2.046689 -1.193096 0
M  V30 55 H 0.183770 -3.097422 0.046522 0
M  V30 56 H 2.692789 -2.328723 0.136613 0
M  V30 57 H 1.783247 -2.386812 1.651965 0
M  V30 END ATOM
M  V30 BEGIN BOND
M  V30 1 2 1 2
M  V30 2 2 2 3
M  V30 3 1 2 4
M  V30 4 2 4 5
M  V30 5 1 5 6
M  V30 6 2 6 7
M  V30 7 1 7 8
M  V30 8 1 7 9
M  V30 9 1 9 10
M  V30 10 1 10 11
M  V30 11 1 10 12
M  V30 12 1 10 13
M  V30 13 2 9 14
M  V30 14 1 2 15
M  V30 15 1 15 16
M  V30 16 1 16 17
M  V30 17 1 17 18
M  V30 18 1 18 19
M  V30 19 1 19 20
M  V30 20 1 20 21
M  V30 21 1 20 22
M  V30 22 1 22 23
M  V30 23 1 23 24
M  V30 24 1 24 25
M  V30 25 1 25 26
M  V30 26 1 26 27
M  V30 27 1 27 28
M  V30 28 1 28 29
M  V30 29 1 18 30
M  V30 30 1 30 31
M  V30 31 1 14 4
M  V30 32 1 31 15
M  V30 33 1 29 25
M  V30 34 1 5 32
M  V30 35 1 6 33
M  V30 36 1 14 34
M  V30 37 1 16 35
M  V30 38 1 16 36
M  V30 39 1 17 37
M  V30 40 1 17 38
M  V30 41 1 19 39
M  V30 42 1 19 40
M  V30 43 1 20 41
M  V30 44 1 21 42
M  V30 45 1 22 43
M  V30 46 1 22 44
M  V30 47 1 24 45
M  V30 48 1 24 46
M  V30 49 1 25 47
M  V30 50 1 26 48
M  V30 51 1 26 49
M  V30 52 1 27 50
M  V30 53 1 27 51
M  V30 54 1 28 52
M  V30 55 1 28 53
M  V30 56 1 30 54
M  V30 57 1 30 55
M  V30 58 1 31 56
M  V30 59 1 31 57
M  V30 END BOND
M  V30 END CTAB
M  END
>  <Dataset>  (379) 
ChEMBL_Kinases

>  <Ligand_Instance>  (379) 
nan

>  <PDB_ID>  (379) 
nan

>  <Standardized_SMILES>  (379) 
O=S(=O)(c1ccc(Cl)c(C(F)(F)F)c1)N1CCN(CC(O)COCC2CCCO2)CC1

>  <Name>  (379) 
nan

>  <Pocket>  (379) 
nan

>  <ATP_Site>  (379) 
nan

>  <Peripheral>  (379) 
nan

>  <Num_H_Atoms_ProtBoundConf>  (379) 
nan

>  <Num_Resolved_Atoms>  (379) 
nan

>  <Num_Not_Resolved_Atoms>  (379) 
nan

$$$$
CHEMBL1448030
     RDKit          3D

  0  0  0  0  0  0  0  0  0  0999 V3000
M  V30 BEGIN CTAB
M  V30 COUNTS 51 55 0 0 0
M  V30 BEGIN ATOM
M  V30 1 C -1.206827 -1.487534 -0.357956 0
M  V30 2 O 0.037528 -1.029942 0.099834 0
M  V30 3 C 1.147650 -1.835017 0.114458 0
M  V30 4 C 0.997822 -3.125414 -0.341586 0
M  V30 5 C 2.112430 -3.932166 -0.326397 0
M  V30 6 C 3.303947 -3.421370 0.135518 0
M  V30 7 C 3.408047 -2.126060 0.581792 0
M  V30 8 C 2.314800 -1.288503 0.581915 0
M  V30 9 N 2.597681 -0.004251 1.069001 0
M  V30 10 C 1.821558 1.144187 1.249299 0
M  V30 11 O 0.612334 1.130757 0.945143 0
M  V30 12 C 2.158820 2.466637 1.762019 0
M  V30 13 C 0.993034 3.412943 1.777941 0
M  V30 14 S -0.388560 2.838354 2.806886 0
M  V30 15 C -1.666400 3.198571 1.571624 0
M  V30 16 N -3.018378 3.118734 1.963989 0
M  V30 17 C -3.653732 2.153876 2.852206 0
M  V30 18 C -4.942527 1.770616 2.133972 0
M  V30 19 C -5.212108 2.922914 1.183328 0
M  V30 20 C -4.182672 3.940711 1.625845 0
M  V30 21 N -1.117100 3.495226 0.438195 0
M  V30 22 C 0.280972 3.461470 0.461267 0
M  V30 23 O 0.984864 3.470098 -0.594304 0
M  V30 24 O 4.163989 -4.379577 0.038284 0
M  V30 25 C 3.626993 -5.470369 -0.449195 0
M  V30 26 C 4.160999 -6.712654 -0.719657 0
M  V30 27 C 3.387775 -7.735169 -1.243683 0
M  V30 28 C 2.038559 -7.455001 -1.488079 0
M  V30 29 C 1.473579 -6.221438 -1.228148 0
M  V30 30 C 2.290398 -5.244995 -0.708240 0
M  V30 31 H -1.896173 -0.613897 -0.462141 0
M  V30 32 H -1.052400 -1.844996 -1.417861 0
M  V30 33 H -1.637354 -2.302295 0.267505 0
M  V30 34 H 0.047628 -3.468849 -0.689195 0
M  V30 35 H 4.406909 -1.831949 0.925498 0
M  V30 36 H 3.539970 0.279575 1.394865 0
M  V30 37 H 2.492754 2.385853 2.828405 0
M  V30 38 H 2.985366 2.988336 1.252377 0
M  V30 39 H 1.349643 4.410190 2.015810 0
M  V30 40 H -3.948765 2.733065 3.751052 0
M  V30 41 H -3.002847 1.292814 3.060755 0
M  V30 42 H -5.797909 1.652120 2.830074 0
M  V30 43 H -4.863636 0.864615 1.533611 0
M  V30 44 H -6.208989 3.374283 1.343863 0
M  V30 45 H -5.086831 2.673991 0.129192 0
M  V30 46 H -4.499484 4.498676 2.521141 0
M  V30 47 H -3.989443 4.634335 0.806989 0
M  V30 48 H 5.215768 -6.886046 -0.513779 0
M  V30 49 H 3.792637 -8.721952 -1.463311 0
M  V30 50 H 1.445538 -8.273450 -1.901090 0
M  V30 51 H 0.429845 -6.026763 -1.424370 0
M  V30 END ATOM
M  V30 BEGIN BOND
M  V30 1 1 1 2
M  V30 2 1 2 3
M  V30 3 2 3 4
M  V30 4 1 4 5
M  V30 5 2 5 6
M  V30 6 1 6 7
M  V30 7 2 7 8
M  V30 8 1 8 9
M  V30 9 1 9 10
M  V30 10 2 10 11
M  V30 11 1 10 12
M  V30 12 1 12 13
M  V30 13 1 13 14
M  V30 14 1 14 15
M  V30 15 1 15 16
M  V30 16 1 16 17
M  V30 17 1 17 18
M  V30 18 1 18 19
M  V30 19 1 19 20
M  V30 20 2 15 21
M  V30 21 1 21 22
M  V30 22 2 22 23
M  V30 23 1 6 24
M  V30 24 1 24 25
M  V30 25 2 25 26
M  V30 26 1 26 27
M  V30 27 2 27 28
M  V30 28 1 28 29
M  V30 29 2 29 30
M  V30 30 1 8 3
M  V30 31 1 22 13
M  V30 32 1 30 25
M  V30 33 1 30 5
M  V30 34 1 20 16
M  V30 35 1 1 31
M  V30 36 1 1 32
M  V30 37 1 1 33
M  V30 38 1 4 34
M  V30 39 1 7 35
M  V30 40 1 9 36
M  V30 41 1 12 37
M  V30 42 1 12 38
M  V30 43 1 13 39
M  V30 44 1 17 40
M  V30 45 1 17 41
M  V30 46 1 18 42
M  V30 47 1 18 43
M  V30 48 1 19 44
M  V30 49 1 19 45
M  V30 50 1 20 46
M  V30 51 1 20 47
M  V30 52 1 26 48
M  V30 53 1 27 49
M  V30 54 1 28 50
M  V30 55 1 29 51
M  V30 END BOND
M  V30 END CTAB
M  END
>  <Dataset>  (380) 
ChEMBL_Kinases

>  <Ligand_Instance>  (380) 
nan

>  <PDB_ID>  (380) 
nan

>  <Standardized_SMILES>  (380) 
COc1cc2c(cc1NC(=O)CC1SC(N3CCCC3)=NC1=O)oc1ccccc12

>  <Name>  (380) 
nan

>  <Pocket>  (380) 
nan

>  <ATP_Site>  (380) 
nan

>  <Peripheral>  (380) 
nan

>  <Num_H_Atoms_ProtBoundConf>  (380) 
nan

>  <Num_Resolved_Atoms>  (380) 
nan

>  <Num_Not_Resolved_Atoms>  (380) 
nan

$$$$
CHEMBL1448
     RDKit          3D

  0  0  0  0  0  0  0  0  0  0999 V3000
M  V30 BEGIN CTAB
M  V30 COUNTS 29 30 0 0 0
M  V30 BEGIN ATOM
M  V30 1 O 0.070134 -0.697017 -0.310450 0
M  V30 2 C -0.238709 -1.093148 0.849077 0
M  V30 3 N 0.682956 -0.575293 1.786263 0
M  V30 4 C 1.655059 0.227531 1.076035 0
M  V30 5 C 2.823127 -0.316831 0.574888 0
M  V30 6 C 3.714634 0.524826 -0.100992 0
M  V30 7 C 3.366288 1.863113 -0.225982 0
M  V30 8 N 4.303943 2.690824 -0.923422 0 CHG=1 VAL=4
M  V30 9 O 4.069762 3.905513 -1.080943 0
M  V30 10 O 5.487172 2.240489 -1.454687 0 CHG=-1 VAL=1
M  V30 11 C 2.193005 2.395999 0.280647 0
M  V30 12 C 1.306385 1.557012 0.953277 0
M  V30 13 Cl -0.155150 2.257515 1.575817 0
M  V30 14 C -1.385898 -1.943756 1.046497 0
M  V30 15 C -2.120686 -2.301415 -0.067176 0
M  V30 16 C -3.227153 -3.104212 0.005929 0
M  V30 17 Cl -4.097959 -3.506113 -1.459468 0
M  V30 18 C -3.681367 -3.610168 1.204339 0
M  V30 19 C -2.967364 -3.269781 2.333911 0
M  V30 20 C -1.857233 -2.458630 2.222845 0
M  V30 21 O -1.200855 -2.163870 3.381537 0
M  V30 22 H 0.532066 -0.834055 2.784445 0
M  V30 23 H 3.033321 -1.376496 0.709149 0
M  V30 24 H 4.637803 0.132828 -0.505990 0
M  V30 25 H 2.000318 3.454179 0.137320 0
M  V30 26 H -1.822828 -1.938833 -1.057036 0
M  V30 27 H -4.543169 -4.241920 1.304019 0
M  V30 28 H -3.297786 -3.649795 3.284868 0
M  V30 29 H -1.556922 -2.220893 4.323978 0
M  V30 END ATOM
M  V30 BEGIN BOND
M  V30 1 2 1 2
M  V30 2 1 2 3
M  V30 3 1 3 4
M  V30 4 2 4 5
M  V30 5 1 5 6
M  V30 6 2 6 7
M  V30 7 1 7 8
M  V30 8 2 8 9
M  V30 9 1 8 10
M  V30 10 1 7 11
M  V30 11 2 11 12
M  V30 12 1 12 13
M  V30 13 1 2 14
M  V30 14 2 14 15
M  V30 15 1 15 16
M  V30 16 1 16 17
M  V30 17 2 16 18
M  V30 18 1 18 19
M  V30 19 2 19 20
M  V30 20 1 20 21
M  V30 21 1 12 4
M  V30 22 1 20 14
M  V30 23 1 3 22
M  V30 24 1 5 23
M  V30 25 1 6 24
M  V30 26 1 11 25
M  V30 27 1 15 26
M  V30 28 1 18 27
M  V30 29 1 19 28
M  V30 30 1 21 29
M  V30 END BOND
M  V30 END CTAB
M  END
>  <Dataset>  (381) 
ChEMBL_Kinases

>  <Ligand_Instance>  (381) 
nan

>  <PDB_ID>  (381) 
nan

>  <Standardized_SMILES>  (381) 
O=C(Nc1ccc([N+](=O)[O-])cc1Cl)c1cc(Cl)ccc1O

>  <Name>  (381) 
NICLOSAMIDE

>  <Pocket>  (381) 
nan

>  <ATP_Site>  (381) 
nan

>  <Peripheral>  (381) 
nan

>  <Num_H_Atoms_ProtBoundConf>  (381) 
nan

>  <Num_Resolved_Atoms>  (381) 
nan

>  <Num_Not_Resolved_Atoms>  (381) 
nan

$$$$
CHEMBL1447909
     RDKit          3D

  0  0  0  0  0  0  0  0  0  0999 V3000
M  V30 BEGIN CTAB
M  V30 COUNTS 37 39 0 0 0
M  V30 BEGIN ATOM
M  V30 1 C -0.119241 -4.682755 2.121109 0
M  V30 2 N 1.242340 -4.677765 2.660800 0
M  V30 3 C 1.619597 -5.849871 3.448102 0
M  V30 4 C 2.329747 -3.757027 2.592237 0
M  V30 5 O 3.486707 -3.383728 2.849146 0
M  V30 6 C 1.843929 -2.623458 1.781745 0
M  V30 7 C 0.930649 -1.689192 2.223031 0
M  V30 8 C 0.530185 -0.662677 1.392365 0
M  V30 9 C 1.005019 -0.511929 0.106472 0
M  V30 10 C 0.613675 0.559361 -0.804941 0
M  V30 11 C -0.287034 1.540004 -0.438592 0
M  V30 12 C -0.655610 2.556181 -1.298657 0
M  V30 13 N -1.578946 3.581013 -0.950408 0
M  V30 14 C -1.661117 4.884411 -1.188090 0
M  V30 15 C -2.786537 5.432515 -0.607272 0
M  V30 16 N -3.427746 4.427084 0.015982 0
M  V30 17 C -2.684184 3.306222 -0.199527 0
M  V30 18 N -0.118480 2.596350 -2.544127 0
M  V30 19 C 0.767126 1.632884 -2.906245 0
M  V30 20 N 1.107621 0.658352 -2.052852 0
M  V30 21 C 1.925900 -1.436075 -0.367641 0
M  V30 22 C 2.316751 -2.460613 0.480671 0
M  V30 23 H -0.781494 -4.808252 2.975516 0
M  V30 24 H -0.357513 -3.717330 1.616027 0
M  V30 25 H -0.221332 -5.529132 1.431795 0
M  V30 26 H 1.938746 -5.471573 4.436610 0
M  V30 27 H 2.502382 -6.376570 2.989780 0
M  V30 28 H 0.797012 -6.566806 3.568932 0
M  V30 29 H 0.551079 -1.795966 3.227300 0
M  V30 30 H -0.189502 0.051901 1.764160 0
M  V30 31 H -0.741288 1.559200 0.525617 0
M  V30 32 H -0.903461 5.393540 -1.773719 0
M  V30 33 H -3.037821 6.495758 -0.686485 0
M  V30 34 H -2.997628 2.357353 0.206389 0
M  V30 35 H 1.263503 1.549917 -3.858738 0
M  V30 36 H 2.337935 -1.374693 -1.367094 0
M  V30 37 H 3.036681 -3.163060 0.073574 0
M  V30 END ATOM
M  V30 BEGIN BOND
M  V30 1 1 1 2
M  V30 2 1 2 3
M  V30 3 1 2 4
M  V30 4 2 4 5
M  V30 5 1 4 6
M  V30 6 2 6 7
M  V30 7 1 7 8
M  V30 8 2 8 9
M  V30 9 1 9 10
M  V30 10 2 10 11
M  V30 11 1 11 12
M  V30 12 1 12 13
M  V30 13 1 13 14
M  V30 14 2 14 15
M  V30 15 1 15 16
M  V30 16 2 16 17
M  V30 17 2 12 18
M  V30 18 1 18 19
M  V30 19 2 19 20
M  V30 20 1 9 21
M  V30 21 2 21 22
M  V30 22 1 22 6
M  V30 23 1 20 10
M  V30 24 1 17 13
M  V30 25 1 1 23
M  V30 26 1 1 24
M  V30 27 1 1 25
M  V30 28 1 3 26
M  V30 29 1 3 27
M  V30 30 1 3 28
M  V30 31 1 7 29
M  V30 32 1 8 30
M  V30 33 1 11 31
M  V30 34 1 14 32
M  V30 35 1 15 33
M  V30 36 1 17 34
M  V30 37 1 19 35
M  V30 38 1 21 36
M  V30 39 1 22 37
M  V30 END BOND
M  V30 END CTAB
M  END
>  <Dataset>  (382) 
ChEMBL_Kinases

>  <Ligand_Instance>  (382) 
nan

>  <PDB_ID>  (382) 
nan

>  <Standardized_SMILES>  (382) 
CN(C)C(=O)c1ccc(-c2cc(-n3ccnc3)ncn2)cc1

>  <Name>  (382) 
nan

>  <Pocket>  (382) 
nan

>  <ATP_Site>  (382) 
nan

>  <Peripheral>  (382) 
nan

>  <Num_H_Atoms_ProtBoundConf>  (382) 
nan

>  <Num_Resolved_Atoms>  (382) 
nan

>  <Num_Not_Resolved_Atoms>  (382) 
nan

$$$$
CHEMBL1447757
     RDKit          3D

  0  0  0  0  0  0  0  0  0  0999 V3000
M  V30 BEGIN CTAB
M  V30 COUNTS 59 62 0 0 0
M  V30 BEGIN ATOM
M  V30 1 C 5.899684 -2.437466 3.129321 0
M  V30 2 C 5.048363 -1.235161 2.923219 0
M  V30 3 C 5.598141 -0.021465 2.560528 0
M  V30 4 C 4.803266 1.090890 2.370741 0
M  V30 5 C 3.437535 0.994343 2.544680 0
M  V30 6 S 2.239908 2.254605 2.360320 0
M  V30 7 O 1.141790 2.085455 3.374746 0
M  V30 8 O 2.847057 3.616931 2.648914 0
M  V30 9 N 1.643695 2.279244 0.753646 0
M  V30 10 C 2.768937 2.568190 -0.120014 0
M  V30 11 C 2.800110 4.083348 -0.040620 0
M  V30 12 O 1.639244 4.477820 0.621458 0
M  V30 13 C 0.808786 3.400025 0.471497 0
M  V30 14 C -0.467592 3.484243 1.235485 0
M  V30 15 N -1.278489 2.308778 1.020415 0
M  V30 16 C -1.776349 1.863123 -0.220845 0
M  V30 17 O -1.531223 2.496738 -1.272935 0
M  V30 18 C -2.596719 0.638701 -0.297968 0
M  V30 19 O -2.841289 0.004089 0.764985 0
M  V30 20 N -3.105705 0.175108 -1.538378 0
M  V30 21 C -3.918288 -1.014443 -1.713477 0
M  V30 22 C -3.128621 -2.224629 -1.238644 0
M  V30 23 C -3.916628 -3.476628 -1.396765 0
M  V30 24 C -5.166382 -3.731336 -1.870001 0
M  V30 25 N -5.364684 -5.070850 -1.778079 0
M  V30 26 C -4.274874 -5.650890 -1.262306 0
M  V30 27 C -4.039659 -6.974680 -0.996890 0
M  V30 28 C -2.841214 -7.394617 -0.457662 0
M  V30 29 C -1.899263 -6.428321 -0.200486 0
M  V30 30 C -2.137091 -5.097203 -0.467924 0
M  V30 31 C -3.325515 -4.665126 -1.004683 0
M  V30 32 C 2.910819 -0.247119 2.911764 0
M  V30 33 C 3.686702 -1.371619 3.106695 0
M  V30 34 H 6.947611 -2.253110 2.812539 0
M  V30 35 H 5.865472 -2.832846 4.163936 0
M  V30 36 H 5.518523 -3.229227 2.444398 0
M  V30 37 H 6.651312 0.103932 2.413602 0
M  V30 38 H 5.138392 2.078515 2.088824 0
M  V30 39 H 2.447712 2.238550 -1.138220 0
M  V30 40 H 3.703193 2.082316 0.171715 0
M  V30 41 H 2.818959 4.472898 -1.076257 0
M  V30 42 H 3.726225 4.429138 0.465413 0
M  V30 43 H 0.545673 3.333875 -0.612603 0
M  V30 44 H -1.041537 4.346602 0.783623 0
M  V30 45 H -0.390793 3.722334 2.293732 0
M  V30 46 H -1.529196 1.718579 1.864672 0
M  V30 47 H -2.843779 0.779155 -2.367227 0
M  V30 48 H -4.075351 -1.159556 -2.802062 0
M  V30 49 H -4.889620 -0.936754 -1.205400 0
M  V30 50 H -2.162120 -2.308061 -1.771768 0
M  V30 51 H -2.923644 -2.128082 -0.162417 0
M  V30 52 H -5.772080 -2.906501 -2.221239 0
M  V30 53 H -6.265498 -5.501519 -2.087446 0
M  V30 54 H -4.764223 -7.769870 -1.188022 0
M  V30 55 H -2.526113 -8.378510 -0.203538 0
M  V30 56 H -0.905132 -6.628152 0.227628 0
M  V30 57 H -1.392461 -4.324708 -0.265713 0
M  V30 58 H 1.836003 -0.417905 3.072292 0
M  V30 59 H 3.286891 -2.326108 3.388350 0
M  V30 END ATOM
M  V30 BEGIN BOND
M  V30 1 1 1 2
M  V30 2 2 2 3
M  V30 3 1 3 4
M  V30 4 2 4 5
M  V30 5 1 5 6
M  V30 6 2 6 7
M  V30 7 2 6 8
M  V30 8 1 6 9
M  V30 9 1 9 10
M  V30 10 1 10 11
M  V30 11 1 11 12
M  V30 12 1 12 13
M  V30 13 1 13 14
M  V30 14 1 14 15
M  V30 15 1 15 16
M  V30 16 2 16 17
M  V30 17 1 16 18
M  V30 18 2 18 19
M  V30 19 1 18 20
M  V30 20 1 20 21
M  V30 21 1 21 22
M  V30 22 1 22 23
M  V30 23 2 23 24
M  V30 24 1 24 25
M  V30 25 1 25 26
M  V30 26 2 26 27
M  V30 27 1 27 28
M  V30 28 2 28 29
M  V30 29 1 29 30
M  V30 30 2 30 31
M  V30 31 1 5 32
M  V30 32 2 32 33
M  V30 33 1 33 2
M  V30 34 1 13 9
M  V30 35 1 31 23
M  V30 36 1 31 26
M  V30 37 1 1 34
M  V30 38 1 1 35
M  V30 39 1 1 36
M  V30 40 1 3 37
M  V30 41 1 4 38
M  V30 42 1 10 39
M  V30 43 1 10 40
M  V30 44 1 11 41
M  V30 45 1 11 42
M  V30 46 1 13 43
M  V30 47 1 14 44
M  V30 48 1 14 45
M  V30 49 1 15 46
M  V30 50 1 20 47
M  V30 51 1 21 48
M  V30 52 1 21 49
M  V30 53 1 22 50
M  V30 54 1 22 51
M  V30 55 1 24 52
M  V30 56 1 25 53
M  V30 57 1 27 54
M  V30 58 1 28 55
M  V30 59 1 29 56
M  V30 60 1 30 57
M  V30 61 1 32 58
M  V30 62 1 33 59
M  V30 END BOND
M  V30 END CTAB
M  END
>  <Dataset>  (383) 
ChEMBL_Kinases

>  <Ligand_Instance>  (383) 
nan

>  <PDB_ID>  (383) 
nan

>  <Standardized_SMILES>  (383) 
Cc1ccc(S(=O)(=O)N2CCOC2CNC(=O)C(=O)NCCc2c[nH]c3ccccc23)cc1

>  <Name>  (383) 
nan

>  <Pocket>  (383) 
nan

>  <ATP_Site>  (383) 
nan

>  <Peripheral>  (383) 
nan

>  <Num_H_Atoms_ProtBoundConf>  (383) 
nan

>  <Num_Resolved_Atoms>  (383) 
nan

>  <Num_Not_Resolved_Atoms>  (383) 
nan

$$$$
CHEMBL1447750
     RDKit          3D

  0  0  0  0  0  0  0  0  0  0999 V3000
M  V30 BEGIN CTAB
M  V30 COUNTS 34 36 0 0 0
M  V30 BEGIN ATOM
M  V30 1 C -1.946682 -3.143165 5.099651 0
M  V30 2 O -2.345678 -3.455931 3.800185 0
M  V30 3 C -1.820715 -2.961308 2.633088 0
M  V30 4 C -0.783969 -2.050997 2.631846 0
M  V30 5 C -0.315608 -1.604656 1.415461 0
M  V30 6 C -0.793004 -1.988164 0.180439 0
M  V30 7 C -0.270389 -1.492611 -1.090326 0
M  V30 8 C -0.815859 -1.936497 -2.305945 0
M  V30 9 S 0.172011 -1.033505 -3.540662 0
M  V30 10 C 1.177799 -0.190018 -2.166307 0
M  V30 11 N 2.240025 0.751672 -2.478138 0
M  V30 12 C 2.962318 1.354208 -1.384651 0
M  V30 13 C 2.020788 2.116397 -0.522640 0
M  V30 14 C 1.722072 3.447847 -0.723603 0
M  V30 15 C 0.824815 3.791034 0.264694 0
M  V30 16 C 0.613332 2.661257 1.024787 0
M  V30 17 O 1.337142 1.699253 0.525866 0
M  V30 18 N 0.717715 -0.621466 -1.213536 0
M  V30 19 C -1.825801 -2.897569 0.270437 0
M  V30 20 C -2.359061 -3.399540 1.439964 0
M  V30 21 H -2.062546 -3.989789 5.810365 0
M  V30 22 H -2.668222 -2.361460 5.469690 0
M  V30 23 H -0.943218 -2.714452 5.201143 0
M  V30 24 H -0.338462 -1.686234 3.546896 0
M  V30 25 H 0.511940 -0.879107 1.451951 0
M  V30 26 H -1.613652 -2.632741 -2.453001 0
M  V30 27 H 2.446484 0.961766 -3.473743 0
M  V30 28 H 3.753459 2.005417 -1.785644 0
M  V30 29 H 3.395755 0.557517 -0.713116 0
M  V30 30 H 2.108872 4.116762 -1.505325 0
M  V30 31 H 0.406892 4.766649 0.369818 0
M  V30 32 H -0.060246 2.647318 1.884963 0
M  V30 33 H -2.289435 -3.278237 -0.644086 0
M  V30 34 H -3.160480 -4.103136 1.437722 0
M  V30 END ATOM
M  V30 BEGIN BOND
M  V30 1 1 1 2
M  V30 2 1 2 3
M  V30 3 2 3 4
M  V30 4 1 4 5
M  V30 5 2 5 6
M  V30 6 1 6 7
M  V30 7 2 7 8
M  V30 8 1 8 9
M  V30 9 1 9 10
M  V30 10 1 10 11
M  V30 11 1 11 12
M  V30 12 1 12 13
M  V30 13 2 13 14
M  V30 14 1 14 15
M  V30 15 2 15 16
M  V30 16 1 16 17
M  V30 17 2 10 18
M  V30 18 1 6 19
M  V30 19 2 19 20
M  V30 20 1 20 3
M  V30 21 1 18 7
M  V30 22 1 17 13
M  V30 23 1 1 21
M  V30 24 1 1 22
M  V30 25 1 1 23
M  V30 26 1 4 24
M  V30 27 1 5 25
M  V30 28 1 8 26
M  V30 29 1 11 27
M  V30 30 1 12 28
M  V30 31 1 12 29
M  V30 32 1 14 30
M  V30 33 1 15 31
M  V30 34 1 16 32
M  V30 35 1 19 33
M  V30 36 1 20 34
M  V30 END BOND
M  V30 END CTAB
M  END
>  <Dataset>  (384) 
ChEMBL_Kinases

>  <Ligand_Instance>  (384) 
nan

>  <PDB_ID>  (384) 
nan

>  <Standardized_SMILES>  (384) 
COc1ccc(-c2csc(NCc3ccco3)n2)cc1

>  <Name>  (384) 
nan

>  <Pocket>  (384) 
nan

>  <ATP_Site>  (384) 
nan

>  <Peripheral>  (384) 
nan

>  <Num_H_Atoms_ProtBoundConf>  (384) 
nan

>  <Num_Resolved_Atoms>  (384) 
nan

>  <Num_Not_Resolved_Atoms>  (384) 
nan

$$$$
CHEMBL1447733
     RDKit          3D

  0  0  0  0  0  0  0  0  0  0999 V3000
M  V30 BEGIN CTAB
M  V30 COUNTS 29 31 0 0 0
M  V30 BEGIN ATOM
M  V30 1 F -2.295536 -4.693217 3.425431 0
M  V30 2 C -1.499194 -3.659586 3.059089 0
M  V30 3 C -1.787091 -2.465886 3.688380 0
M  V30 4 C -1.030807 -1.360288 3.375371 0
M  V30 5 C -0.031022 -1.483825 2.459504 0
M  V30 6 C 0.295847 -2.663439 1.799386 0
M  V30 7 N 1.342402 -2.754396 0.820556 0
M  V30 8 C 2.046386 -1.541208 0.512857 0
M  V30 9 C 1.226661 -0.642300 -0.130438 0
M  V30 10 C 1.645270 0.621272 -0.555261 0
M  V30 11 N 0.762786 1.539721 -1.206576 0
M  V30 12 C -0.453339 1.661820 -0.589182 0
M  V30 13 C -1.247830 2.577235 -1.285711 0
M  V30 14 C -0.422237 2.978366 -2.342724 0
M  V30 15 N 0.764729 2.330074 -2.249126 0
M  V30 16 N 2.928661 0.948309 -0.308115 0
M  V30 17 C 3.716387 0.035563 0.331908 0
M  V30 18 N 3.300075 -1.185302 0.739670 0
M  V30 19 C -0.480559 -3.758171 2.135265 0
M  V30 20 H -2.581474 -2.354215 4.418523 0
M  V30 21 H -1.249672 -0.405484 3.868365 0
M  V30 22 H 0.535946 -0.592110 2.246336 0
M  V30 23 H 1.517330 -3.696554 0.409904 0
M  V30 24 H 0.165794 -0.815220 -0.381374 0
M  V30 25 H -0.887622 1.197571 0.296452 0
M  V30 26 H -2.260299 2.896268 -1.057212 0
M  V30 27 H -0.750655 3.693785 -3.067583 0
M  V30 28 H 4.762652 0.259522 0.550282 0
M  V30 29 H -0.310693 -4.720705 1.684718 0
M  V30 END ATOM
M  V30 BEGIN BOND
M  V30 1 1 1 2
M  V30 2 2 2 3
M  V30 3 1 3 4
M  V30 4 2 4 5
M  V30 5 1 5 6
M  V30 6 1 6 7
M  V30 7 1 7 8
M  V30 8 2 8 9
M  V30 9 1 9 10
M  V30 10 1 10 11
M  V30 11 1 11 12
M  V30 12 2 12 13
M  V30 13 1 13 14
M  V30 14 2 14 15
M  V30 15 2 10 16
M  V30 16 1 16 17
M  V30 17 2 17 18
M  V30 18 2 6 19
M  V30 19 1 19 2
M  V30 20 1 18 8
M  V30 21 1 15 11
M  V30 22 1 3 20
M  V30 23 1 4 21
M  V30 24 1 5 22
M  V30 25 1 7 23
M  V30 26 1 9 24
M  V30 27 1 12 25
M  V30 28 1 13 26
M  V30 29 1 14 27
M  V30 30 1 17 28
M  V30 31 1 19 29
M  V30 END BOND
M  V30 END CTAB
M  END
>  <Dataset>  (385) 
ChEMBL_Kinases

>  <Ligand_Instance>  (385) 
nan

>  <PDB_ID>  (385) 
nan

>  <Standardized_SMILES>  (385) 
Fc1cccc(Nc2cc(-n3cccn3)ncn2)c1

>  <Name>  (385) 
nan

>  <Pocket>  (385) 
nan

>  <ATP_Site>  (385) 
nan

>  <Peripheral>  (385) 
nan

>  <Num_H_Atoms_ProtBoundConf>  (385) 
nan

>  <Num_Resolved_Atoms>  (385) 
nan

>  <Num_Not_Resolved_Atoms>  (385) 
nan

$$$$
CHEMBL1447705
     RDKit          3D

  0  0  0  0  0  0  0  0  0  0999 V3000
M  V30 BEGIN CTAB
M  V30 COUNTS 40 43 0 0 0
M  V30 BEGIN ATOM
M  V30 1 C -0.216384 1.176031 2.506170 0
M  V30 2 C -0.663194 0.268675 1.422871 0
M  V30 3 C -0.342720 -1.163142 1.775573 0
M  V30 4 N -0.804198 -2.100741 0.776717 0
M  V30 5 C -2.257971 -1.956276 0.665311 0
M  V30 6 C -2.672835 -0.585403 0.254675 0
M  V30 7 C -4.170216 -0.566957 0.145140 0
M  V30 8 C -2.106649 -0.080204 -1.025876 0
M  V30 9 N -0.644276 -0.032742 -1.020017 0
M  V30 10 C -0.104251 0.684642 0.095660 0
M  V30 11 P -0.201762 -1.725557 -0.822134 0
M  V30 12 O -1.022048 -2.515366 -1.814227 0
M  V30 13 O 1.462334 -1.998526 -0.967731 0
M  V30 14 C 2.007076 -1.792659 -2.236870 0
M  V30 15 C 1.945619 -0.532738 -2.832515 0
M  V30 16 C 2.495935 -0.354746 -4.097389 0
M  V30 17 C 3.085430 -1.453560 -4.709839 0
M  V30 18 C 3.148836 -2.702019 -4.124909 0
M  V30 19 C 2.596805 -2.868614 -2.862979 0
M  V30 20 C -2.150534 0.336622 1.317927 0
M  V30 21 O -2.862733 1.056884 2.013941 0
M  V30 22 H 0.519021 1.936273 2.182319 0
M  V30 23 H -1.075704 1.783585 2.915594 0
M  V30 24 H 0.155658 0.604444 3.402733 0
M  V30 25 H 0.716110 -1.267805 2.003325 0
M  V30 26 H -0.896828 -1.384089 2.706846 0
M  V30 27 H -2.676356 -2.744835 0.015934 0
M  V30 28 H -2.648049 -2.112045 1.693583 0
M  V30 29 H -4.565842 -0.109857 1.080389 0
M  V30 30 H -4.523002 0.032836 -0.696703 0
M  V30 31 H -4.593536 -1.610911 0.074845 0
M  V30 32 H -2.503354 0.919395 -1.203436 0
M  V30 33 H -2.378583 -0.808333 -1.833317 0
M  V30 34 H -0.191311 1.774008 0.019805 0
M  V30 35 H 0.980702 0.453717 0.122155 0
M  V30 36 H 1.483365 0.298589 -2.334814 0
M  V30 37 H 2.457964 0.613868 -4.574899 0
M  V30 38 H 3.505343 -1.298963 -5.685814 0
M  V30 39 H 3.624092 -3.510830 -4.663015 0
M  V30 40 H 2.655981 -3.842757 -2.427048 0
M  V30 END ATOM
M  V30 BEGIN BOND
M  V30 1 1 1 2
M  V30 2 1 2 3
M  V30 3 1 3 4
M  V30 4 1 4 5
M  V30 5 1 5 6
M  V30 6 1 6 7
M  V30 7 1 6 8
M  V30 8 1 8 9
M  V30 9 1 9 10
M  V30 10 1 9 11
M  V30 11 2 11 12
M  V30 12 1 11 13
M  V30 13 1 13 14
M  V30 14 2 14 15
M  V30 15 1 15 16
M  V30 16 2 16 17
M  V30 17 1 17 18
M  V30 18 2 18 19
M  V30 19 1 6 20
M  V30 20 2 20 21
M  V30 21 1 10 2
M  V30 22 1 19 14
M  V30 23 1 20 2
M  V30 24 1 11 4
M  V30 25 1 1 22
M  V30 26 1 1 23
M  V30 27 1 1 24
M  V30 28 1 3 25
M  V30 29 1 3 26
M  V30 30 1 5 27
M  V30 31 1 5 28
M  V30 32 1 7 29
M  V30 33 1 7 30
M  V30 34 1 7 31
M  V30 35 1 8 32
M  V30 36 1 8 33
M  V30 37 1 10 34
M  V30 38 1 10 35
M  V30 39 1 15 36
M  V30 40 1 16 37
M  V30 41 1 17 38
M  V30 42 1 18 39
M  V30 43 1 19 40
M  V30 END BOND
M  V30 END CTAB
M  END
>  <Dataset>  (386) 
ChEMBL_Kinases

>  <Ligand_Instance>  (386) 
nan

>  <PDB_ID>  (386) 
nan

>  <Standardized_SMILES>  (386) 
CC12CN3CC(C)(CN(C1)P3(=O)Oc1ccccc1)C2=O

>  <Name>  (386) 
nan

>  <Pocket>  (386) 
nan

>  <ATP_Site>  (386) 
nan

>  <Peripheral>  (386) 
nan

>  <Num_H_Atoms_ProtBoundConf>  (386) 
nan

>  <Num_Resolved_Atoms>  (386) 
nan

>  <Num_Not_Resolved_Atoms>  (386) 
nan

$$$$
CHEMBL1447651
     RDKit          3D

  0  0  0  0  0  0  0  0  0  0999 V3000
M  V30 BEGIN CTAB
M  V30 COUNTS 52 54 0 0 0
M  V30 BEGIN ATOM
M  V30 1 C 0.577287 0.952144 6.132148 0
M  V30 2 C 0.524852 -0.557536 6.007440 0
M  V30 3 C 1.931362 -1.149130 6.158390 0
M  V30 4 C 1.780796 -2.649660 6.020646 0
M  V30 5 C 1.210625 -2.962653 4.689156 0
M  V30 6 C 0.763056 -3.219938 3.590287 0
M  V30 7 C 0.260167 -3.518872 2.300361 0
M  V30 8 N -0.231480 -4.734057 1.996544 0
M  V30 9 C -0.711543 -5.017822 0.763507 0
M  V30 10 N -1.231669 -6.311504 0.450479 0
M  V30 11 C -0.723404 -4.078155 -0.248860 0
M  V30 12 N -1.110902 -4.027814 -1.533926 0
M  V30 13 C -0.853964 -2.779682 -2.011029 0
M  V30 14 N -0.301014 -2.049588 -1.009037 0
M  V30 15 C 0.126103 -0.667484 -1.083672 0 CFG=2
M  V30 16 O -0.621036 0.018088 -1.998898 0
M  V30 17 C 0.185000 0.632238 -2.922482 0 CFG=1
M  V30 18 C -0.428316 1.923282 -3.392291 0
M  V30 19 O 0.172332 2.635455 -4.250285 0
M  V30 20 N -1.692535 2.306742 -2.841744 0
M  V30 21 C -2.312502 3.554223 -3.278262 0
M  V30 22 C -3.624285 3.666345 -2.516421 0
M  V30 23 C 1.481470 0.835561 -2.200653 0 CFG=2
M  V30 24 O 2.562492 1.039191 -3.042868 0
M  V30 25 C 1.578798 -0.502971 -1.453729 0 CFG=2
M  V30 26 O 1.951307 -1.519108 -2.312459 0
M  V30 27 C -0.215543 -2.836328 0.078907 0
M  V30 28 N 0.246557 -2.606049 1.310271 0
M  V30 29 H 1.626424 1.252045 6.010821 0
M  V30 30 H -0.109451 1.377051 5.386026 0
M  V30 31 H 0.219259 1.291072 7.129435 0
M  V30 32 H -0.084969 -1.024555 6.799656 0
M  V30 33 H 0.186254 -0.824687 4.988934 0
M  V30 34 H 2.318101 -0.914287 7.156544 0
M  V30 35 H 2.537088 -0.721342 5.348220 0
M  V30 36 H 2.759603 -3.127824 6.148054 0
M  V30 37 H 1.027521 -3.022448 6.740846 0
M  V30 38 H -0.939021 -7.294741 0.172318 0
M  V30 39 H -2.279173 -6.185403 0.545244 0
M  V30 40 H -1.056118 -2.425853 -3.021205 0
M  V30 41 H 0.009379 -0.153842 -0.087010 0
M  V30 42 H 0.311124 -0.006304 -3.818439 0
M  V30 43 H -2.133422 1.656157 -2.126705 0
M  V30 44 H -2.477375 3.579405 -4.363999 0
M  V30 45 H -1.658777 4.356192 -2.913837 0
M  V30 46 H -3.554824 3.188122 -1.512593 0
M  V30 47 H -3.904099 4.720448 -2.308648 0
M  V30 48 H -4.454628 3.200286 -3.057662 0
M  V30 49 H 1.352554 1.607324 -1.442403 0
M  V30 50 H 3.266669 1.460255 -2.469822 0
M  V30 51 H 2.220812 -0.423085 -0.560361 0
M  V30 52 H 2.887398 -1.835448 -2.161247 0
M  V30 END ATOM
M  V30 BEGIN BOND
M  V30 1 1 1 2
M  V30 2 1 2 3
M  V30 3 1 3 4
M  V30 4 1 4 5
M  V30 5 3 5 6
M  V30 6 1 6 7
M  V30 7 2 7 8
M  V30 8 1 8 9
M  V30 9 1 9 10
M  V30 10 2 9 11
M  V30 11 1 11 12
M  V30 12 2 12 13
M  V30 13 1 13 14
M  V30 14 1 14 15
M  V30 15 1 15 16
M  V30 16 1 16 17
M  V30 17 1 17 18
M  V30 18 2 18 19
M  V30 19 1 18 20
M  V30 20 1 20 21
M  V30 21 1 21 22
M  V30 22 1 17 23
M  V30 23 1 23 24
M  V30 24 1 23 25
M  V30 25 1 25 26
M  V30 26 1 14 27
M  V30 27 2 27 28
M  V30 28 1 28 7
M  V30 29 1 27 11
M  V30 30 1 25 15
M  V30 31 1 1 29
M  V30 32 1 1 30
M  V30 33 1 1 31
M  V30 34 1 2 32
M  V30 35 1 2 33
M  V30 36 1 3 34
M  V30 37 1 3 35
M  V30 38 1 4 36
M  V30 39 1 4 37
M  V30 40 1 10 38
M  V30 41 1 10 39
M  V30 42 1 13 40
M  V30 43 1 15 41 CFG=1
M  V30 44 1 17 42 CFG=3
M  V30 45 1 20 43
M  V30 46 1 21 44
M  V30 47 1 21 45
M  V30 48 1 22 46
M  V30 49 1 22 47
M  V30 50 1 22 48
M  V30 51 1 23 49 CFG=1
M  V30 52 1 24 50
M  V30 53 1 25 51 CFG=1
M  V30 54 1 26 52
M  V30 END BOND
M  V30 END CTAB
M  END
>  <Dataset>  (387) 
ChEMBL_Kinases

>  <Ligand_Instance>  (387) 
nan

>  <PDB_ID>  (387) 
nan

>  <Standardized_SMILES>  (387) 
CCCCC#Cc1nc(N)c2ncn([C@@H]3O[C@@H](C(=O)NCC)[C@H](O)[C@@H]3O)c2n1

>  <Name>  (387) 
nan

>  <Pocket>  (387) 
nan

>  <ATP_Site>  (387) 
nan

>  <Peripheral>  (387) 
nan

>  <Num_H_Atoms_ProtBoundConf>  (387) 
nan

>  <Num_Resolved_Atoms>  (387) 
nan

>  <Num_Not_Resolved_Atoms>  (387) 
nan

$$$$
CHEMBL1447470
     RDKit          3D

  0  0  0  0  0  0  0  0  0  0999 V3000
M  V30 BEGIN CTAB
M  V30 COUNTS 19 20 0 0 0
M  V30 BEGIN ATOM
M  V30 1 S 1.988891 1.267587 5.352350 0
M  V30 2 C 1.200260 0.373165 4.003447 0
M  V30 3 N 0.291887 -0.613865 4.095237 0
M  V30 4 N -0.028254 -0.994713 2.871450 0
M  V30 5 C 0.651654 -0.277677 1.974810 0
M  V30 6 C 0.725698 -0.235092 0.525122 0
M  V30 7 C 1.558159 0.654164 -0.143504 0
M  V30 8 C 1.678694 0.749927 -1.497062 0
M  V30 9 C 0.955009 -0.059719 -2.309502 0
M  V30 10 C 0.112044 -0.962338 -1.714371 0
M  V30 11 C 0.024618 -1.021933 -0.356781 0
M  V30 12 Br -1.189340 -2.327460 0.284660 0
M  V30 13 N 1.403001 0.559753 2.699390 0
M  V30 14 H 1.968165 2.641910 4.970082 0
M  V30 15 H -0.700788 -1.733582 2.630617 0
M  V30 16 H 2.183153 1.350294 0.439875 0
M  V30 17 H 2.351928 1.471868 -1.931793 0
M  V30 18 H 1.074026 0.041991 -3.373703 0
M  V30 19 H -0.450309 -1.592651 -2.389393 0
M  V30 END ATOM
M  V30 BEGIN BOND
M  V30 1 1 1 2
M  V30 2 2 2 3
M  V30 3 1 3 4
M  V30 4 1 4 5
M  V30 5 1 5 6
M  V30 6 2 6 7
M  V30 7 1 7 8
M  V30 8 2 8 9
M  V30 9 1 9 10
M  V30 10 2 10 11
M  V30 11 1 11 12
M  V30 12 2 5 13
M  V30 13 1 13 2
M  V30 14 1 11 6
M  V30 15 1 1 14
M  V30 16 1 4 15
M  V30 17 1 7 16
M  V30 18 1 8 17
M  V30 19 1 9 18
M  V30 20 1 10 19
M  V30 END BOND
M  V30 END CTAB
M  END
>  <Dataset>  (388) 
ChEMBL_Kinases

>  <Ligand_Instance>  (388) 
nan

>  <PDB_ID>  (388) 
nan

>  <Standardized_SMILES>  (388) 
Sc1n[nH]c(-c2ccccc2Br)n1

>  <Name>  (388) 
nan

>  <Pocket>  (388) 
nan

>  <ATP_Site>  (388) 
nan

>  <Peripheral>  (388) 
nan

>  <Num_H_Atoms_ProtBoundConf>  (388) 
nan

>  <Num_Resolved_Atoms>  (388) 
nan

>  <Num_Not_Resolved_Atoms>  (388) 
nan

$$$$
CHEMBL1447318
     RDKit          3D

  0  0  0  0  0  0  0  0  0  0999 V3000
M  V30 BEGIN CTAB
M  V30 COUNTS 79 84 0 0 0
M  V30 BEGIN ATOM
M  V30 1 C 2.484045 -0.054739 4.232701 0
M  V30 2 C 2.604682 -0.818174 2.937995 0
M  V30 3 O 2.829149 -2.027764 3.213588 0
M  V30 4 O 2.473816 -0.197279 1.703739 0
M  V30 5 C 2.595580 -0.954504 0.564669 0
M  V30 6 C 3.856022 -0.565690 -0.147207 0
M  V30 7 C 3.818235 0.281680 -1.330805 0
M  V30 8 O 4.518664 -0.327900 -2.409549 0
M  V30 9 C 2.520836 0.731715 -1.885457 0
M  V30 10 C 2.469828 2.280046 -1.918844 0
M  V30 11 C 2.332950 0.357915 -3.351152 0
M  V30 12 C 1.366956 0.349368 -1.002581 0
M  V30 13 C 0.028161 0.692824 -1.551929 0
M  V30 14 C -0.967983 0.829598 -0.400820 0
M  V30 15 O -0.708813 2.104974 0.176021 0
M  V30 16 C -1.638131 3.119675 0.184474 0
M  V30 17 C -1.436299 4.468628 0.765908 0
M  V30 18 O -2.772605 2.939621 -0.332514 0
M  V30 19 C -0.845993 -0.298493 0.615131 0 CFG=2
M  V30 20 C -0.453442 0.386090 1.938413 0
M  V30 21 C 0.095430 -1.357953 0.190720 0
M  V30 22 C -0.597980 -2.282606 -0.766308 0
M  V30 23 C -2.023494 -2.045398 -1.103999 0
M  V30 24 C -2.936204 -1.642709 -0.027873 0 CFG=1
M  V30 25 C -4.044207 -0.759187 -0.632806 0
M  V30 26 C -3.676723 -2.870384 0.465794 0
M  V30 27 C -2.840432 -4.032789 0.739162 0
M  V30 28 C -2.691062 -5.124111 -0.127650 0
M  V30 29 C -1.837163 -5.982311 0.492091 0
M  V30 30 O -1.485329 -5.468797 1.645904 0
M  V30 31 C -2.059831 -4.296163 1.845696 0
M  V30 32 O -4.466185 -2.579530 1.601352 0
M  V30 33 C -3.903359 -1.765165 2.542969 0
M  V30 34 O -4.463323 -1.753981 3.693646 0
M  V30 35 C -2.733856 -0.942071 2.290512 0
M  V30 36 O -3.033881 0.206277 1.564828 0
M  V30 37 C -2.178369 -0.901806 0.991396 0
M  V30 38 C 1.423249 -0.999114 -0.376705 0 CFG=2
M  V30 39 C 1.847582 -2.101204 -1.352464 0
M  V30 40 H 2.377387 1.014815 3.952748 0
M  V30 41 H 3.439855 -0.120062 4.791986 0
M  V30 42 H 1.602016 -0.332019 4.812331 0
M  V30 43 H 2.768503 -2.023170 0.904358 0
M  V30 44 H 4.530451 -0.082101 0.630764 0
M  V30 45 H 4.509444 -1.470535 -0.357673 0
M  V30 46 H 4.473330 1.198649 -1.197740 0
M  V30 47 H 5.192286 -0.967673 -2.053862 0
M  V30 48 H 3.541909 2.566353 -2.110104 0
M  V30 49 H 1.827032 2.646402 -2.725701 0
M  V30 50 H 2.217136 2.615274 -0.905592 0
M  V30 51 H 1.303737 0.144182 -3.634325 0
M  V30 52 H 3.079516 -0.424873 -3.682202 0
M  V30 53 H 2.616970 1.206547 -4.045786 0
M  V30 54 H 1.472120 1.053979 -0.136451 0
M  V30 55 H 0.127535 1.718256 -2.005248 0
M  V30 56 H -0.315341 0.067035 -2.369679 0
M  V30 57 H -2.005707 0.909975 -0.782615 0
M  V30 58 H -1.350465 5.154852 -0.121469 0
M  V30 59 H -0.558424 4.522195 1.427975 0
M  V30 60 H -2.344227 4.827487 1.317341 0
M  V30 61 H -0.202476 -0.337299 2.706014 0
M  V30 62 H -1.386907 0.880195 2.368576 0
M  V30 63 H 0.161470 1.270079 1.826564 0
M  V30 64 H 0.327684 -1.941484 1.132807 0
M  V30 65 H -0.174717 -2.262410 -1.811157 0
M  V30 66 H -0.464047 -3.338788 -0.429915 0
M  V30 67 H -2.374426 -3.026922 -1.551212 0
M  V30 68 H -2.191867 -1.371398 -1.999818 0
M  V30 69 H -4.157101 0.157487 -0.049351 0
M  V30 70 H -3.758417 -0.447548 -1.680707 0
M  V30 71 H -4.995934 -1.277302 -0.751569 0
M  V30 72 H -4.425706 -3.115991 -0.344462 0
M  V30 73 H -3.168924 -5.247831 -1.100301 0
M  V30 74 H -1.545554 -6.919446 0.036402 0
M  V30 75 H -1.922403 -3.694038 2.712434 0
M  V30 76 H -2.082904 -0.848932 3.194575 0
M  V30 77 H 2.952600 -2.309776 -1.332649 0
M  V30 78 H 1.472260 -3.098486 -1.007470 0
M  V30 79 H 1.682237 -1.870550 -2.402061 0
M  V30 END ATOM
M  V30 BEGIN BOND
M  V30 1 1 1 2
M  V30 2 2 2 3
M  V30 3 1 2 4
M  V30 4 1 4 5
M  V30 5 1 5 6
M  V30 6 1 6 7
M  V30 7 1 7 8
M  V30 8 1 7 9
M  V30 9 1 9 10
M  V30 10 1 9 11
M  V30 11 1 9 12
M  V30 12 1 12 13
M  V30 13 1 13 14
M  V30 14 1 14 15
M  V30 15 1 15 16
M  V30 16 1 16 17
M  V30 17 2 16 18
M  V30 18 1 14 19
M  V30 19 1 19 20 CFG=1
M  V30 20 1 19 21
M  V30 21 1 21 22
M  V30 22 1 22 23
M  V30 23 1 23 24
M  V30 24 1 24 25 CFG=3
M  V30 25 1 24 26
M  V30 26 1 26 27
M  V30 27 1 27 28
M  V30 28 2 28 29
M  V30 29 1 29 30
M  V30 30 1 30 31
M  V30 31 1 26 32
M  V30 32 1 32 33
M  V30 33 2 33 34
M  V30 34 1 33 35
M  V30 35 1 35 36
M  V30 36 1 36 37
M  V30 37 1 21 38
M  V30 38 1 38 39 CFG=3
M  V30 39 1 38 5
M  V30 40 1 38 12
M  V30 41 1 37 19
M  V30 42 1 37 24
M  V30 43 2 31 27
M  V30 44 1 37 35
M  V30 45 1 1 40
M  V30 46 1 1 41
M  V30 47 1 1 42
M  V30 48 1 5 43
M  V30 49 1 6 44
M  V30 50 1 6 45
M  V30 51 1 7 46
M  V30 52 1 8 47
M  V30 53 1 10 48
M  V30 54 1 10 49
M  V30 55 1 10 50
M  V30 56 1 11 51
M  V30 57 1 11 52
M  V30 58 1 11 53
M  V30 59 1 12 54
M  V30 60 1 13 55
M  V30 61 1 13 56
M  V30 62 1 14 57
M  V30 63 1 17 58
M  V30 64 1 17 59
M  V30 65 1 17 60
M  V30 66 1 20 61
M  V30 67 1 20 62
M  V30 68 1 20 63
M  V30 69 1 21 64
M  V30 70 1 22 65
M  V30 71 1 22 66
M  V30 72 1 23 67
M  V30 73 1 23 68
M  V30 74 1 25 69
M  V30 75 1 25 70
M  V30 76 1 25 71
M  V30 77 1 26 72
M  V30 78 1 28 73
M  V30 79 1 29 74
M  V30 80 1 31 75
M  V30 81 1 35 76
M  V30 82 1 39 77
M  V30 83 1 39 78
M  V30 84 1 39 79
M  V30 END BOND
M  V30 END CTAB
M  END
>  <Dataset>  (389) 
ChEMBL_Kinases

>  <Ligand_Instance>  (389) 
nan

>  <PDB_ID>  (389) 
nan

>  <Standardized_SMILES>  (389) 
CC(=O)OC1CC(O)C(C)(C)C2CC(OC(C)=O)[C@]3(C)C(CC[C@@]4(C)C(c5ccoc5)OC(=O)C5OC534)[C@]12C

>  <Name>  (389) 
nan

>  <Pocket>  (389) 
nan

>  <ATP_Site>  (389) 
nan

>  <Peripheral>  (389) 
nan

>  <Num_H_Atoms_ProtBoundConf>  (389) 
nan

>  <Num_Resolved_Atoms>  (389) 
nan

>  <Num_Not_Resolved_Atoms>  (389) 
nan

$$$$
CHEMBL1447284
     RDKit          3D

  0  0  0  0  0  0  0  0  0  0999 V3000
M  V30 BEGIN CTAB
M  V30 COUNTS 34 36 0 0 0
M  V30 BEGIN ATOM
M  V30 1 C -0.104606 -3.709182 3.997186 0
M  V30 2 O -1.234909 -3.156778 3.348292 0
M  V30 3 C -1.093331 -2.789592 2.014449 0
M  V30 4 C 0.057435 -2.916519 1.262895 0
M  V30 5 C 0.092543 -2.519582 -0.059790 0
M  V30 6 C -1.069805 -1.982106 -0.627874 0
M  V30 7 N -1.027556 -1.576674 -1.985330 0
M  V30 8 N -0.313609 -0.629550 -2.416695 0
M  V30 9 C 0.540623 0.153250 -1.596918 0
M  V30 10 C 1.914168 -0.053969 -1.707522 0
M  V30 11 C 2.823594 0.655622 -0.955434 0
M  V30 12 C 2.379536 1.610991 -0.053826 0
M  V30 13 O 3.259859 2.354088 0.728981 0
M  V30 14 C 1.029569 1.830848 0.070662 0
M  V30 15 N 0.611975 2.755877 0.944458 0
M  V30 16 C -0.697998 2.983366 1.079043 0
M  V30 17 C -1.645391 2.279302 0.329813 0
M  V30 18 C -1.223312 1.322511 -0.574638 0
M  V30 19 C 0.128252 1.112961 -0.688972 0
M  V30 20 C -2.215641 -1.859970 0.134238 0
M  V30 21 C -2.262024 -2.257716 1.470942 0
M  V30 22 H 0.045903 -4.784873 3.704929 0
M  V30 23 H 0.825583 -3.174423 3.785565 0
M  V30 24 H -0.260866 -3.724360 5.105587 0
M  V30 25 H 0.911679 -3.331916 1.746486 0
M  V30 26 H 1.011785 -2.630259 -0.630020 0
M  V30 27 H 2.336511 -0.771716 -2.378982 0
M  V30 28 H 3.879884 0.519312 -1.018029 0
M  V30 29 H 3.227231 3.375205 0.780885 0
M  V30 30 H -1.024360 3.734786 1.789695 0
M  V30 31 H -2.710911 2.453086 0.428313 0
M  V30 32 H -1.932319 0.748221 -1.181533 0
M  V30 33 H -3.063268 -1.434931 -0.387358 0
M  V30 34 H -3.197833 -2.128794 1.998746 0
M  V30 END ATOM
M  V30 BEGIN BOND
M  V30 1 1 1 2
M  V30 2 1 2 3
M  V30 3 2 3 4
M  V30 4 1 4 5
M  V30 5 2 5 6
M  V30 6 1 6 7
M  V30 7 2 7 8 CFG=2
M  V30 8 1 8 9
M  V30 9 2 9 10
M  V30 10 1 10 11
M  V30 11 2 11 12
M  V30 12 1 12 13
M  V30 13 1 12 14
M  V30 14 2 14 15
M  V30 15 1 15 16
M  V30 16 2 16 17
M  V30 17 1 17 18
M  V30 18 2 18 19
M  V30 19 1 6 20
M  V30 20 2 20 21
M  V30 21 1 21 3
M  V30 22 1 19 9
M  V30 23 1 19 14
M  V30 24 1 1 22
M  V30 25 1 1 23
M  V30 26 1 1 24
M  V30 27 1 4 25
M  V30 28 1 5 26
M  V30 29 1 10 27
M  V30 30 1 11 28
M  V30 31 1 13 29
M  V30 32 1 16 30
M  V30 33 1 17 31
M  V30 34 1 18 32
M  V30 35 1 20 33
M  V30 36 1 21 34
M  V30 END BOND
M  V30 END CTAB
M  END
>  <Dataset>  (390) 
ChEMBL_Kinases

>  <Ligand_Instance>  (390) 
nan

>  <PDB_ID>  (390) 
nan

>  <Standardized_SMILES>  (390) 
COc1ccc(N=Nc2ccc(O)c3ncccc23)cc1

>  <Name>  (390) 
nan

>  <Pocket>  (390) 
nan

>  <ATP_Site>  (390) 
nan

>  <Peripheral>  (390) 
nan

>  <Num_H_Atoms_ProtBoundConf>  (390) 
nan

>  <Num_Resolved_Atoms>  (390) 
nan

>  <Num_Not_Resolved_Atoms>  (390) 
nan

$$$$
CHEMBL1445107
     RDKit          3D

  0  0  0  0  0  0  0  0  0  0999 V3000
M  V30 BEGIN CTAB
M  V30 COUNTS 51 53 0 0 0
M  V30 BEGIN ATOM
M  V30 1 C 3.308405 -7.553492 3.040358 0
M  V30 2 C 3.003393 -6.099560 2.794083 0
M  V30 3 C 3.226170 -5.680841 1.483785 0
M  V30 4 C 2.948568 -4.346990 1.248816 0
M  V30 5 C 2.482909 -3.464039 2.217945 0
M  V30 6 N 2.217160 -2.096943 1.902351 0
M  V30 7 C 0.888423 -1.871772 1.471403 0
M  V30 8 O 0.171297 -2.901794 1.438502 0
M  V30 9 C 0.356816 -0.581343 1.090876 0
M  V30 10 C 1.078604 0.521931 1.112465 0
M  V30 11 C 0.476340 1.799898 0.713268 0
M  V30 12 C 1.117828 2.935528 0.705447 0
M  V30 13 C 0.609477 4.246265 0.328227 0
M  V30 14 C 1.409032 5.381174 0.366985 0
M  V30 15 C 0.897926 6.610663 0.002907 0
M  V30 16 C -0.409687 6.765480 -0.409484 0
M  V30 17 C -1.244688 5.650518 -0.462138 0
M  V30 18 C -0.687822 4.425044 -0.085267 0
M  V30 19 N -0.999529 -0.481182 0.673551 0
M  V30 20 C -1.438010 -1.212771 -0.456705 0
M  V30 21 O -0.525543 -1.906584 -0.992120 0
M  V30 22 C -2.807338 -1.162150 -0.943795 0
M  V30 23 C -3.796435 -0.406819 -0.358282 0
M  V30 24 C -5.090314 -0.393567 -0.863774 0
M  V30 25 C -5.296448 -1.183214 -1.976955 0
M  V30 26 C -4.369448 -1.970260 -2.628933 0
M  V30 27 C -3.092664 -1.934548 -2.066486 0
M  V30 28 C 2.282382 -3.953819 3.510975 0
M  V30 29 C 2.543901 -5.292383 3.814903 0
M  V30 30 H 3.238849 -7.805691 4.117183 0
M  V30 31 H 2.604997 -8.164057 2.439017 0
M  V30 32 H 4.319559 -7.738651 2.620473 0
M  V30 33 H 3.584648 -6.344981 0.722046 0
M  V30 34 H 3.096827 -3.956663 0.264392 0
M  V30 35 H 2.881641 -1.294662 1.959193 0
M  V30 36 H 2.114892 0.510192 1.420168 0
M  V30 37 H -0.558276 1.837882 0.401645 0
M  V30 38 H 2.169727 2.878153 1.025571 0
M  V30 39 H 2.457124 5.300268 0.690061 0
M  V30 40 H 1.584414 7.460019 0.057885 0
M  V30 41 H -0.803590 7.745347 -0.695752 0
M  V30 42 H -2.263734 5.757674 -0.781214 0
M  V30 43 H -1.385609 3.614941 -0.150350 0
M  V30 44 H -1.659210 0.130582 1.204232 0
M  V30 45 H -3.574807 0.186562 0.505217 0
M  V30 46 H -5.874925 0.184674 -0.426648 0
M  V30 47 H -6.301490 -1.179116 -2.377617 0
M  V30 48 H -4.635611 -2.548219 -3.490262 0
M  V30 49 H -2.324860 -2.550210 -2.559220 0
M  V30 50 H 1.922388 -3.305730 4.295209 0
M  V30 51 H 2.394045 -5.687452 4.810522 0
M  V30 END ATOM
M  V30 BEGIN BOND
M  V30 1 1 1 2
M  V30 2 2 2 3
M  V30 3 1 3 4
M  V30 4 2 4 5
M  V30 5 1 5 6
M  V30 6 1 6 7
M  V30 7 2 7 8
M  V30 8 1 7 9
M  V30 9 2 9 10
M  V30 10 1 10 11
M  V30 11 2 11 12
M  V30 12 1 12 13
M  V30 13 2 13 14
M  V30 14 1 14 15
M  V30 15 2 15 16
M  V30 16 1 16 17
M  V30 17 2 17 18
M  V30 18 1 9 19
M  V30 19 1 19 20
M  V30 20 2 20 21
M  V30 21 1 20 22
M  V30 22 2 22 23
M  V30 23 1 23 24
M  V30 24 2 24 25
M  V30 25 1 25 26
M  V30 26 2 26 27
M  V30 27 1 5 28
M  V30 28 2 28 29
M  V30 29 1 29 2
M  V30 30 1 18 13
M  V30 31 1 27 22
M  V30 32 1 1 30
M  V30 33 1 1 31
M  V30 34 1 1 32
M  V30 35 1 3 33
M  V30 36 1 4 34
M  V30 37 1 6 35
M  V30 38 1 10 36
M  V30 39 1 11 37
M  V30 40 1 12 38
M  V30 41 1 14 39
M  V30 42 1 15 40
M  V30 43 1 16 41
M  V30 44 1 17 42
M  V30 45 1 18 43
M  V30 46 1 19 44
M  V30 47 1 23 45
M  V30 48 1 24 46
M  V30 49 1 25 47
M  V30 50 1 26 48
M  V30 51 1 27 49
M  V30 52 1 28 50
M  V30 53 1 29 51
M  V30 END BOND
M  V30 END CTAB
M  END
>  <Dataset>  (391) 
ChEMBL_Kinases

>  <Ligand_Instance>  (391) 
nan

>  <PDB_ID>  (391) 
nan

>  <Standardized_SMILES>  (391) 
Cc1ccc(NC(=O)/C(=C/C=C/c2ccccc2)NC(=O)c2ccccc2)cc1

>  <Name>  (391) 
nan

>  <Pocket>  (391) 
nan

>  <ATP_Site>  (391) 
nan

>  <Peripheral>  (391) 
nan

>  <Num_H_Atoms_ProtBoundConf>  (391) 
nan

>  <Num_Resolved_Atoms>  (391) 
nan

>  <Num_Not_Resolved_Atoms>  (391) 
nan

$$$$
CHEMBL1445111
     RDKit          3D

  0  0  0  0  0  0  0  0  0  0999 V3000
M  V30 BEGIN CTAB
M  V30 COUNTS 63 67 0 0 0
M  V30 BEGIN ATOM
M  V30 1 O -0.816102 -2.683329 3.821812 0
M  V30 2 C -1.171597 -1.722061 3.068745 0
M  V30 3 C -0.430864 -0.491516 2.724240 0
M  V30 4 C 0.932768 -0.453318 3.425738 0
M  V30 5 C 1.895739 0.415644 2.595743 0
M  V30 6 C 2.288682 -0.390649 1.393517 0
M  V30 7 C 3.045755 0.322033 0.338716 0
M  V30 8 N 2.438145 1.447885 -0.273135 0
M  V30 9 C 2.728884 2.636060 0.338469 0
M  V30 10 O 3.456879 2.870944 1.356372 0
M  V30 11 N 2.207750 3.792328 -0.144484 0
M  V30 12 C 1.406775 3.851992 -1.208005 0
M  V30 13 C 0.859285 5.001755 -1.727197 0
M  V30 14 C 0.036996 5.044216 -2.822309 0
M  V30 15 C -0.237829 3.820500 -3.419938 0
M  V30 16 C 0.267063 2.616339 -2.968072 0
M  V30 17 C 1.085884 2.661304 -1.861293 0
M  V30 18 C 1.629910 1.516021 -1.345399 0
M  V30 19 O 1.372811 0.441732 -1.892564 0
M  V30 20 C 1.092167 -1.159891 0.953807 0
M  V30 21 C -0.147594 -0.327727 1.258326 0
M  V30 22 N -2.444344 -2.038029 2.596546 0
M  V30 23 C -3.003552 -3.314179 3.059344 0
M  V30 24 C -3.324587 -4.090348 1.802451 0
M  V30 25 N -2.801735 -3.483343 0.602047 0
M  V30 26 C -1.820094 -3.952326 -0.293819 0
M  V30 27 C -1.417333 -3.265467 -1.417954 0
M  V30 28 C -0.449592 -3.790217 -2.245925 0
M  V30 29 C 0.168138 -5.001049 -2.020394 0
M  V30 30 C -0.241503 -5.692351 -0.883343 0
M  V30 31 C -1.213721 -5.165508 -0.051187 0
M  V30 32 C -3.508260 -2.230175 0.475347 0
M  V30 33 C -3.386718 -1.380477 1.722654 0
M  V30 34 H -1.010565 0.385714 3.070449 0
M  V30 35 H 0.766103 0.024021 4.413765 0
M  V30 36 H 1.400110 -1.447310 3.500406 0
M  V30 37 H 2.777119 0.591630 3.239724 0
M  V30 38 H 1.432652 1.392563 2.375061 0
M  V30 39 H 3.021431 -1.165329 1.805747 0
M  V30 40 H 3.279169 -0.446745 -0.451593 0
M  V30 41 H 4.060817 0.571855 0.751202 0
M  V30 42 H 2.373463 4.750806 0.256991 0
M  V30 43 H 1.099236 5.944325 -1.229012 0
M  V30 44 H -0.365092 5.976616 -3.187156 0
M  V30 45 H -0.900779 3.884170 -4.296993 0
M  V30 46 H 0.014876 1.696749 -3.478460 0
M  V30 47 H 1.000765 -2.080868 1.608620 0
M  V30 48 H 1.117216 -1.556570 -0.066606 0
M  V30 49 H -0.988087 -0.609686 0.596746 0
M  V30 50 H 0.006203 0.755318 1.076696 0
M  V30 51 H -2.364200 -3.844945 3.761038 0
M  V30 52 H -3.979380 -3.066027 3.542463 0
M  V30 53 H -4.431315 -4.263791 1.689823 0
M  V30 54 H -2.876258 -5.094695 1.955303 0
M  V30 55 H -1.837764 -2.327667 -1.669579 0
M  V30 56 H -0.152969 -3.222604 -3.127068 0
M  V30 57 H 0.916976 -5.333453 -2.725150 0
M  V30 58 H 0.264338 -6.641659 -0.734604 0
M  V30 59 H -1.409388 -5.815900 0.767924 0
M  V30 60 H -3.200083 -1.602032 -0.363299 0
M  V30 61 H -4.581428 -2.502025 0.256558 0
M  V30 62 H -4.410886 -1.375291 2.195243 0
M  V30 63 H -3.175949 -0.316534 1.527201 0
M  V30 END ATOM
M  V30 BEGIN BOND
M  V30 1 2 1 2
M  V30 2 1 2 3
M  V30 3 1 3 4
M  V30 4 1 4 5
M  V30 5 1 5 6
M  V30 6 1 6 7
M  V30 7 1 7 8
M  V30 8 1 8 9
M  V30 9 2 9 10
M  V30 10 1 9 11
M  V30 11 1 11 12
M  V30 12 2 12 13
M  V30 13 1 13 14
M  V30 14 2 14 15
M  V30 15 1 15 16
M  V30 16 2 16 17
M  V30 17 1 17 18
M  V30 18 2 18 19
M  V30 19 1 6 20
M  V30 20 1 20 21
M  V30 21 1 2 22
M  V30 22 1 22 23
M  V30 23 1 23 24
M  V30 24 1 24 25
M  V30 25 1 25 26
M  V30 26 2 26 27
M  V30 27 1 27 28
M  V30 28 2 28 29
M  V30 29 1 29 30
M  V30 30 2 30 31
M  V30 31 1 25 32
M  V30 32 1 32 33
M  V30 33 1 21 3
M  V30 34 1 33 22
M  V30 35 1 18 8
M  V30 36 1 31 26
M  V30 37 1 17 12
M  V30 38 1 3 34
M  V30 39 1 4 35
M  V30 40 1 4 36
M  V30 41 1 5 37
M  V30 42 1 5 38
M  V30 43 1 6 39
M  V30 44 1 7 40
M  V30 45 1 7 41
M  V30 46 1 11 42
M  V30 47 1 13 43
M  V30 48 1 14 44
M  V30 49 1 15 45
M  V30 50 1 16 46
M  V30 51 1 20 47
M  V30 52 1 20 48
M  V30 53 1 21 49
M  V30 54 1 21 50
M  V30 55 1 23 51
M  V30 56 1 23 52
M  V30 57 1 24 53
M  V30 58 1 24 54
M  V30 59 1 27 55
M  V30 60 1 28 56
M  V30 61 1 29 57
M  V30 62 1 30 58
M  V30 63 1 31 59
M  V30 64 1 32 60
M  V30 65 1 32 61
M  V30 66 1 33 62
M  V30 67 1 33 63
M  V30 END BOND
M  V30 END CTAB
M  END
>  <Dataset>  (392) 
ChEMBL_Kinases

>  <Ligand_Instance>  (392) 
nan

>  <PDB_ID>  (392) 
nan

>  <Standardized_SMILES>  (392) 
O=C(C1CCC(Cn2c(=O)[nH]c3ccccc3c2=O)CC1)N1CCN(c2ccccc2)CC1

>  <Name>  (392) 
nan

>  <Pocket>  (392) 
nan

>  <ATP_Site>  (392) 
nan

>  <Peripheral>  (392) 
nan

>  <Num_H_Atoms_ProtBoundConf>  (392) 
nan

>  <Num_Resolved_Atoms>  (392) 
nan

>  <Num_Not_Resolved_Atoms>  (392) 
nan

$$$$
CHEMBL1445120
     RDKit          3D

  0  0  0  0  0  0  0  0  0  0999 V3000
M  V30 BEGIN CTAB
M  V30 COUNTS 29 29 0 0 0
M  V30 BEGIN ATOM
M  V30 1 C 0.554418 -2.333551 3.620280 0
M  V30 2 O 0.620956 -2.018474 2.221118 0
M  V30 3 C 1.828798 -2.066079 1.529046 0
M  V30 4 O 2.918505 -2.376758 2.051644 0
M  V30 5 C 1.615465 -1.690611 0.078776 0
M  V30 6 C 0.598523 -2.691118 -0.396327 0
M  V30 7 O 0.143336 -3.574168 -1.168404 0
M  V30 8 O -0.569113 -2.883762 0.290778 0
M  V30 9 C -1.602615 -3.782121 -0.033973 0
M  V30 10 C 1.066779 -0.310734 0.095535 0
M  V30 11 N 1.703740 0.525927 0.966823 0
M  V30 12 C 1.333333 1.811252 1.114651 0
M  V30 13 C 0.296632 2.393475 0.414633 0
M  V30 14 C -0.087796 3.817222 0.601377 0
M  V30 15 F -1.041555 3.911878 1.618137 0
M  V30 16 F 1.018690 4.511803 1.039011 0
M  V30 17 F -0.656349 4.355552 -0.527278 0
M  V30 18 C -0.339920 1.542618 -0.461724 0
M  V30 19 C 0.029469 0.224367 -0.622775 0
M  V30 20 Cl -0.749319 -0.862813 -1.723588 0
M  V30 21 H 1.090175 -1.550619 4.175037 0
M  V30 22 H 0.937046 -3.358910 3.791103 0
M  V30 23 H -0.526250 -2.247814 3.865781 0
M  V30 24 H 2.538095 -1.741348 -0.497207 0
M  V30 25 H -2.273737 -3.784122 0.874676 0
M  V30 26 H -2.154903 -3.377599 -0.890870 0
M  V30 27 H -1.285762 -4.830235 -0.148004 0
M  V30 28 H 1.882184 2.423078 1.825115 0
M  V30 29 H -1.165928 1.911267 -1.054676 0
M  V30 END ATOM
M  V30 BEGIN BOND
M  V30 1 1 1 2
M  V30 2 1 2 3
M  V30 3 2 3 4
M  V30 4 1 3 5
M  V30 5 1 5 6
M  V30 6 2 6 7
M  V30 7 1 6 8
M  V30 8 1 8 9
M  V30 9 1 5 10
M  V30 10 2 10 11
M  V30 11 1 11 12
M  V30 12 2 12 13
M  V30 13 1 13 14
M  V30 14 1 14 15
M  V30 15 1 14 16
M  V30 16 1 14 17
M  V30 17 1 13 18
M  V30 18 2 18 19
M  V30 19 1 19 20
M  V30 20 1 19 10
M  V30 21 1 1 21
M  V30 22 1 1 22
M  V30 23 1 1 23
M  V30 24 1 5 24
M  V30 25 1 9 25
M  V30 26 1 9 26
M  V30 27 1 9 27
M  V30 28 1 12 28
M  V30 29 1 18 29
M  V30 END BOND
M  V30 END CTAB
M  END
>  <Dataset>  (393) 
ChEMBL_Kinases

>  <Ligand_Instance>  (393) 
nan

>  <PDB_ID>  (393) 
nan

>  <Standardized_SMILES>  (393) 
COC(=O)C(C(=O)OC)c1ncc(C(F)(F)F)cc1Cl

>  <Name>  (393) 
nan

>  <Pocket>  (393) 
nan

>  <ATP_Site>  (393) 
nan

>  <Peripheral>  (393) 
nan

>  <Num_H_Atoms_ProtBoundConf>  (393) 
nan

>  <Num_Resolved_Atoms>  (393) 
nan

>  <Num_Not_Resolved_Atoms>  (393) 
nan

$$$$
CHEMBL1445171
     RDKit          3D

  0  0  0  0  0  0  0  0  0  0999 V3000
M  V30 BEGIN CTAB
M  V30 COUNTS 58 60 0 0 0
M  V30 BEGIN ATOM
M  V30 1 C 4.007848 0.116562 4.693597 0
M  V30 2 C 4.081866 -0.131824 3.216166 0
M  V30 3 N 4.775102 0.881005 2.488439 0
M  V30 4 C 5.905719 1.328081 3.231839 0
M  V30 5 C 7.137891 1.605153 2.402323 0
M  V30 6 S 3.765929 2.152556 1.935942 0
M  V30 7 O 4.606255 3.139606 1.217759 0
M  V30 8 O 3.081794 2.845006 3.067099 0
M  V30 9 C 2.536280 1.577230 0.832653 0
M  V30 10 C 2.662817 1.484691 -0.550323 0
M  V30 11 C 1.608424 1.010551 -1.309281 0
M  V30 12 C 0.404844 0.612841 -0.759953 0
M  V30 13 C 0.277656 0.704273 0.614455 0
M  V30 14 C 1.317122 1.175168 1.396904 0
M  V30 15 C -1.063795 0.236346 0.983173 0
M  V30 16 N -1.516009 0.187371 2.180418 0
M  V30 17 O -2.749686 -0.240715 2.541729 0
M  V30 18 C -1.739977 -0.144774 -0.263683 0
M  V30 19 C -3.016484 -0.648879 -0.492833 0
M  V30 20 C -3.377777 -0.917541 -1.800062 0
M  V30 21 S -5.025742 -1.552182 -1.940437 0
M  V30 22 O -5.945401 -0.833105 -1.000890 0
M  V30 23 O -5.481276 -1.112660 -3.327931 0
M  V30 24 N -5.026539 -3.194687 -1.838465 0
M  V30 25 C -4.313612 -3.906481 -2.827507 0
M  V30 26 C -2.859110 -4.103156 -2.412603 0
M  V30 27 C -5.460084 -3.938759 -0.769417 0
M  V30 28 C -4.484818 -4.282242 0.322270 0
M  V30 29 C -2.507389 -0.697418 -2.862682 0
M  V30 30 C -1.252419 -0.196209 -2.582131 0
M  V30 31 C -0.847803 0.086839 -1.293968 0
M  V30 32 H 2.953538 -0.045814 5.015412 0
M  V30 33 H 4.629187 -0.601827 5.276305 0
M  V30 34 H 4.258340 1.158298 4.976712 0
M  V30 35 H 4.674407 -1.076395 3.072741 0
M  V30 36 H 3.091967 -0.372857 2.788606 0
M  V30 37 H 5.678581 2.242862 3.845044 0
M  V30 38 H 6.163491 0.555483 3.985484 0
M  V30 39 H 7.726016 2.420605 2.886095 0
M  V30 40 H 6.801126 1.838586 1.386545 0
M  V30 41 H 7.792642 0.709668 2.385966 0
M  V30 42 H 3.614594 1.802565 -0.951187 0
M  V30 43 H 1.747564 0.953761 -2.386558 0
M  V30 44 H 1.179344 1.230684 2.456550 0
M  V30 45 H -3.275160 0.271966 3.221455 0
M  V30 46 H -3.647145 -0.798989 0.369758 0
M  V30 47 H -4.369733 -3.450519 -3.845426 0
M  V30 48 H -4.743641 -4.942095 -2.993350 0
M  V30 49 H -2.776901 -5.097492 -1.938441 0
M  V30 50 H -2.623042 -3.335521 -1.666063 0
M  V30 51 H -2.184982 -4.008295 -3.294986 0
M  V30 52 H -5.865984 -4.924644 -1.158983 0
M  V30 53 H -6.362673 -3.515955 -0.230956 0
M  V30 54 H -4.039325 -5.268783 0.082997 0
M  V30 55 H -3.671194 -3.573759 0.471691 0
M  V30 56 H -5.016721 -4.475329 1.300845 0
M  V30 57 H -2.901303 -0.944868 -3.839600 0
M  V30 58 H -0.590014 -0.031832 -3.421991 0
M  V30 END ATOM
M  V30 BEGIN BOND
M  V30 1 1 1 2
M  V30 2 1 2 3
M  V30 3 1 3 4
M  V30 4 1 4 5
M  V30 5 1 3 6
M  V30 6 2 6 7
M  V30 7 2 6 8
M  V30 8 1 6 9
M  V30 9 2 9 10
M  V30 10 1 10 11
M  V30 11 2 11 12
M  V30 12 1 12 13
M  V30 13 2 13 14
M  V30 14 1 13 15
M  V30 15 2 15 16 CFG=2
M  V30 16 1 16 17
M  V30 17 1 15 18
M  V30 18 2 18 19
M  V30 19 1 19 20
M  V30 20 1 20 21
M  V30 21 2 21 22
M  V30 22 2 21 23
M  V30 23 1 21 24
M  V30 24 1 24 25
M  V30 25 1 25 26
M  V30 26 1 24 27
M  V30 27 1 27 28
M  V30 28 2 20 29
M  V30 29 1 29 30
M  V30 30 2 30 31
M  V30 31 1 14 9
M  V30 32 1 31 18
M  V30 33 1 31 12
M  V30 34 1 1 32
M  V30 35 1 1 33
M  V30 36 1 1 34
M  V30 37 1 2 35
M  V30 38 1 2 36
M  V30 39 1 4 37
M  V30 40 1 4 38
M  V30 41 1 5 39
M  V30 42 1 5 40
M  V30 43 1 5 41
M  V30 44 1 10 42
M  V30 45 1 11 43
M  V30 46 1 14 44
M  V30 47 1 17 45
M  V30 48 1 19 46
M  V30 49 1 25 47
M  V30 50 1 25 48
M  V30 51 1 26 49
M  V30 52 1 26 50
M  V30 53 1 26 51
M  V30 54 1 27 52
M  V30 55 1 27 53
M  V30 56 1 28 54
M  V30 57 1 28 55
M  V30 58 1 28 56
M  V30 59 1 29 57
M  V30 60 1 30 58
M  V30 END BOND
M  V30 END CTAB
M  END
>  <Dataset>  (394) 
ChEMBL_Kinases

>  <Ligand_Instance>  (394) 
nan

>  <PDB_ID>  (394) 
nan

>  <Standardized_SMILES>  (394) 
CCN(CC)S(=O)(=O)c1ccc2c(c1)C(=NO)c1cc(S(=O)(=O)N(CC)CC)ccc1-2

>  <Name>  (394) 
nan

>  <Pocket>  (394) 
nan

>  <ATP_Site>  (394) 
nan

>  <Peripheral>  (394) 
nan

>  <Num_H_Atoms_ProtBoundConf>  (394) 
nan

>  <Num_Resolved_Atoms>  (394) 
nan

>  <Num_Not_Resolved_Atoms>  (394) 
nan

$$$$
CHEMBL1445184
     RDKit          3D

  0  0  0  0  0  0  0  0  0  0999 V3000
M  V30 BEGIN CTAB
M  V30 COUNTS 44 46 0 0 0
M  V30 BEGIN ATOM
M  V30 1 C -0.637423 -6.594700 0.699324 0
M  V30 2 O -1.296496 -5.644440 -0.111407 0
M  V30 3 C -0.694281 -4.489546 -0.591651 0
M  V30 4 C 0.588624 -4.016153 -0.415586 0
M  V30 5 C 0.953767 -2.823423 -1.004000 0
M  V30 6 C 0.059975 -2.097317 -1.763937 0
M  V30 7 C 0.571324 -0.848442 -2.333625 0
M  V30 8 N 0.352920 0.262804 -1.425813 0
M  V30 9 C -0.785831 1.116152 -1.367634 0
M  V30 10 O -1.825052 1.067879 -2.097134 0
M  V30 11 N -0.562683 2.065891 -0.322097 0
M  V30 12 C 0.775877 1.973295 0.218836 0
M  V30 13 C 1.586517 3.085575 -0.399139 0
M  V30 14 C 0.834583 1.951100 1.676109 0
M  V30 15 C 1.340715 3.039304 2.358133 0
M  V30 16 C 1.398896 3.024263 3.737649 0
M  V30 17 C 0.935245 1.890930 4.379896 0
M  V30 18 C 0.977332 1.826167 5.878098 0
M  V30 19 C 0.426053 0.792226 3.730127 0
M  V30 20 C 0.379930 0.835304 2.347276 0
M  V30 21 C 1.251610 0.709800 -0.411487 0
M  V30 22 O 2.306823 0.108248 -0.096974 0
M  V30 23 C -1.229691 -2.554278 -1.952353 0
M  V30 24 C -1.601863 -3.758400 -1.359594 0
M  V30 25 F -2.892321 -4.092238 -1.622602 0
M  V30 26 H -0.938312 -6.497711 1.783077 0
M  V30 27 H -1.027656 -7.600694 0.368868 0
M  V30 28 H 0.463606 -6.542614 0.569685 0
M  V30 29 H 1.190177 -4.673103 0.197421 0
M  V30 30 H 1.995786 -2.550550 -0.793614 0
M  V30 31 H 1.648914 -0.922981 -2.594127 0
M  V30 32 H 0.032607 -0.641584 -3.280494 0
M  V30 33 H -1.192601 2.774627 0.081741 0
M  V30 34 H 1.168492 4.062707 -0.117026 0
M  V30 35 H 2.665523 2.986414 -0.169942 0
M  V30 36 H 1.516742 2.960252 -1.506460 0
M  V30 37 H 1.707391 3.935341 1.852537 0
M  V30 38 H 1.781375 3.834002 4.370094 0
M  V30 39 H 1.514674 2.691830 6.302921 0
M  V30 40 H 1.521980 0.923224 6.223584 0
M  V30 41 H -0.037122 1.813274 6.291317 0
M  V30 42 H 0.069303 -0.085611 4.278183 0
M  V30 43 H -0.019284 -0.024609 1.824108 0
M  V30 44 H -1.878261 -1.943033 -2.554701 0
M  V30 END ATOM
M  V30 BEGIN BOND
M  V30 1 1 1 2
M  V30 2 1 2 3
M  V30 3 2 3 4
M  V30 4 1 4 5
M  V30 5 2 5 6
M  V30 6 1 6 7
M  V30 7 1 7 8
M  V30 8 1 8 9
M  V30 9 2 9 10
M  V30 10 1 9 11
M  V30 11 1 11 12
M  V30 12 1 12 13
M  V30 13 1 12 14
M  V30 14 2 14 15
M  V30 15 1 15 16
M  V30 16 2 16 17
M  V30 17 1 17 18
M  V30 18 1 17 19
M  V30 19 2 19 20
M  V30 20 1 12 21
M  V30 21 2 21 22
M  V30 22 1 6 23
M  V30 23 2 23 24
M  V30 24 1 24 25
M  V30 25 1 24 3
M  V30 26 1 21 8
M  V30 27 1 20 14
M  V30 28 1 1 26
M  V30 29 1 1 27
M  V30 30 1 1 28
M  V30 31 1 4 29
M  V30 32 1 5 30
M  V30 33 1 7 31
M  V30 34 1 7 32
M  V30 35 1 11 33
M  V30 36 1 13 34
M  V30 37 1 13 35
M  V30 38 1 13 36
M  V30 39 1 15 37
M  V30 40 1 16 38
M  V30 41 1 18 39
M  V30 42 1 18 40
M  V30 43 1 18 41
M  V30 44 1 19 42
M  V30 45 1 20 43
M  V30 46 1 23 44
M  V30 END BOND
M  V30 END CTAB
M  END
>  <Dataset>  (395) 
ChEMBL_Kinases

>  <Ligand_Instance>  (395) 
nan

>  <PDB_ID>  (395) 
nan

>  <Standardized_SMILES>  (395) 
COc1ccc(CN2C(=O)NC(C)(c3ccc(C)cc3)C2=O)cc1F

>  <Name>  (395) 
nan

>  <Pocket>  (395) 
nan

>  <ATP_Site>  (395) 
nan

>  <Peripheral>  (395) 
nan

>  <Num_H_Atoms_ProtBoundConf>  (395) 
nan

>  <Num_Resolved_Atoms>  (395) 
nan

>  <Num_Not_Resolved_Atoms>  (395) 
nan

$$$$
CHEMBL1445225
     RDKit          3D

  0  0  0  0  0  0  0  0  0  0999 V3000
M  V30 BEGIN CTAB
M  V30 COUNTS 26 28 0 0 0
M  V30 BEGIN ATOM
M  V30 1 O 0.479369 -3.206287 -0.117310 0
M  V30 2 C 0.328264 -2.375080 0.830315 0
M  V30 3 O 0.158510 -2.889538 2.112246 0
M  V30 4 C -0.116349 -1.855238 3.032387 0
M  V30 5 C 1.154149 -1.073172 3.269475 0
M  V30 6 C 1.473533 -0.547468 1.872783 0
M  V30 7 C 0.265633 -0.907909 1.054631 0
M  V30 8 C 0.026430 -0.106632 -0.120430 0
M  V30 9 C -0.913225 0.927815 -0.042406 0
M  V30 10 C -1.140083 1.698423 -1.180482 0
M  V30 11 C -0.438534 1.422437 -2.341171 0
M  V30 12 C 0.497425 0.391497 -2.417628 0
M  V30 13 C 0.714036 -0.372179 -1.269030 0
M  V30 14 C -0.829368 -0.854523 2.106826 0
M  V30 15 H -0.686075 -2.134248 3.895425 0
M  V30 16 H 1.973974 -1.648489 3.697579 0
M  V30 17 H 0.869139 -0.179444 3.861417 0
M  V30 18 H 1.740019 0.514333 1.858614 0
M  V30 19 H 2.335652 -1.154795 1.473637 0
M  V30 20 H -1.455092 1.131529 0.875030 0
M  V30 21 H -1.861287 2.522456 -1.187206 0
M  V30 22 H -0.603962 2.013924 -3.236758 0
M  V30 23 H 1.036113 0.195544 -3.344321 0
M  V30 24 H 1.441947 -1.179913 -1.315216 0
M  V30 25 H -1.798831 -1.213561 1.764746 0
M  V30 26 H -0.875430 0.143591 2.584990 0
M  V30 END ATOM
M  V30 BEGIN BOND
M  V30 1 2 1 2
M  V30 2 1 2 3
M  V30 3 1 3 4
M  V30 4 1 4 5
M  V30 5 1 5 6
M  V30 6 1 6 7
M  V30 7 1 7 8
M  V30 8 2 8 9
M  V30 9 1 9 10
M  V30 10 2 10 11
M  V30 11 1 11 12
M  V30 12 2 12 13
M  V30 13 1 7 14
M  V30 14 1 7 2
M  V30 15 1 13 8
M  V30 16 1 14 4
M  V30 17 1 4 15
M  V30 18 1 5 16
M  V30 19 1 5 17
M  V30 20 1 6 18
M  V30 21 1 6 19
M  V30 22 1 9 20
M  V30 23 1 10 21
M  V30 24 1 11 22
M  V30 25 1 12 23
M  V30 26 1 13 24
M  V30 27 1 14 25
M  V30 28 1 14 26
M  V30 END BOND
M  V30 END CTAB
M  END
>  <Dataset>  (396) 
ChEMBL_Kinases

>  <Ligand_Instance>  (396) 
nan

>  <PDB_ID>  (396) 
nan

>  <Standardized_SMILES>  (396) 
O=C1OC2CCC1(c1ccccc1)C2

>  <Name>  (396) 
nan

>  <Pocket>  (396) 
nan

>  <ATP_Site>  (396) 
nan

>  <Peripheral>  (396) 
nan

>  <Num_H_Atoms_ProtBoundConf>  (396) 
nan

>  <Num_Resolved_Atoms>  (396) 
nan

>  <Num_Not_Resolved_Atoms>  (396) 
nan

$$$$
CHEMBL1445293
     RDKit          3D

  0  0  0  0  0  0  0  0  0  0999 V3000
M  V30 BEGIN CTAB
M  V30 COUNTS 45 46 0 0 0
M  V30 BEGIN ATOM
M  V30 1 C -0.765386 -4.319777 5.252929 0
M  V30 2 C 0.258601 -4.020664 4.216250 0
M  V30 3 C -0.079808 -2.942169 3.425771 0
M  V30 4 N 0.721446 -2.519555 2.433093 0
M  V30 5 C 1.883137 -3.143260 2.183820 0
M  V30 6 C 2.857383 -2.801335 1.142202 0
M  V30 7 O 3.938154 -3.402923 0.930830 0
M  V30 8 O 2.476443 -1.711846 0.372138 0
M  V30 9 C 3.271633 -1.215064 -0.687627 0
M  V30 10 C 2.513293 -0.045277 -1.258898 0
M  V30 11 O 3.128843 0.495179 -2.229305 0
M  V30 12 N 1.236572 0.435292 -0.787642 0
M  V30 13 C 0.615335 1.569646 -1.425062 0
M  V30 14 C 0.544687 2.795007 -0.552999 0
M  V30 15 C -0.678822 2.905735 0.297614 0
M  V30 16 C -0.874875 1.855468 1.312734 0
M  V30 17 C -1.749555 0.719229 0.974721 0
M  V30 18 C -2.435666 0.747800 -0.358024 0
M  V30 19 C -1.567229 0.268609 -1.503267 0
M  V30 20 C -0.674934 1.291531 -2.093570 0
M  V30 21 C 2.214239 -4.223101 2.980940 0
M  V30 22 N 1.415048 -4.653236 3.979347 0
M  V30 23 H -1.656167 -4.817115 4.779052 0
M  V30 24 H -1.155069 -3.382811 5.715687 0
M  V30 25 H -0.396697 -4.961531 6.055516 0
M  V30 26 H -0.985975 -2.328101 3.497465 0
M  V30 27 H 3.454615 -1.983763 -1.472530 0
M  V30 28 H 4.212597 -0.809225 -0.271864 0
M  V30 29 H 0.939491 -0.162169 0.004246 0
M  V30 30 H 1.352251 1.850308 -2.238834 0
M  V30 31 H 0.514509 3.684435 -1.249110 0
M  V30 32 H 1.474309 2.940814 0.035594 0
M  V30 33 H -0.540031 3.890632 0.840577 0
M  V30 34 H -1.548323 3.113932 -0.354561 0
M  V30 35 H 0.148370 1.457039 1.584888 0
M  V30 36 H -1.206516 2.307383 2.296033 0
M  V30 37 H -2.565167 0.600261 1.750360 0
M  V30 38 H -1.224057 -0.264601 1.034173 0
M  V30 39 H -3.268662 -0.017651 -0.294108 0
M  V30 40 H -2.972723 1.673672 -0.591999 0
M  V30 41 H -1.071068 -0.666173 -1.196311 0
M  V30 42 H -2.279936 -0.062387 -2.309878 0
M  V30 43 H -0.510731 1.012366 -3.177278 0
M  V30 44 H -1.257497 2.244692 -2.173814 0
M  V30 45 H 3.122771 -4.778298 2.850849 0
M  V30 END ATOM
M  V30 BEGIN BOND
M  V30 1 1 1 2
M  V30 2 2 2 3
M  V30 3 1 3 4
M  V30 4 2 4 5
M  V30 5 1 5 6
M  V30 6 2 6 7
M  V30 7 1 6 8
M  V30 8 1 8 9
M  V30 9 1 9 10
M  V30 10 2 10 11
M  V30 11 1 10 12
M  V30 12 1 12 13
M  V30 13 1 13 14
M  V30 14 1 14 15
M  V30 15 1 15 16
M  V30 16 1 16 17
M  V30 17 1 17 18
M  V30 18 1 18 19
M  V30 19 1 19 20
M  V30 20 1 5 21
M  V30 21 2 21 22
M  V30 22 1 22 2
M  V30 23 1 20 13
M  V30 24 1 1 23
M  V30 25 1 1 24
M  V30 26 1 1 25
M  V30 27 1 3 26
M  V30 28 1 9 27
M  V30 29 1 9 28
M  V30 30 1 12 29
M  V30 31 1 13 30
M  V30 32 1 14 31
M  V30 33 1 14 32
M  V30 34 1 15 33
M  V30 35 1 15 34
M  V30 36 1 16 35
M  V30 37 1 16 36
M  V30 38 1 17 37
M  V30 39 1 17 38
M  V30 40 1 18 39
M  V30 41 1 18 40
M  V30 42 1 19 41
M  V30 43 1 19 42
M  V30 44 1 20 43
M  V30 45 1 20 44
M  V30 46 1 21 45
M  V30 END BOND
M  V30 END CTAB
M  END
>  <Dataset>  (397) 
ChEMBL_Kinases

>  <Ligand_Instance>  (397) 
nan

>  <PDB_ID>  (397) 
nan

>  <Standardized_SMILES>  (397) 
Cc1cnc(C(=O)OCC(=O)NC2CCCCCCC2)cn1

>  <Name>  (397) 
nan

>  <Pocket>  (397) 
nan

>  <ATP_Site>  (397) 
nan

>  <Peripheral>  (397) 
nan

>  <Num_H_Atoms_ProtBoundConf>  (397) 
nan

>  <Num_Resolved_Atoms>  (397) 
nan

>  <Num_Not_Resolved_Atoms>  (397) 
nan

$$$$
CHEMBL1445388
     RDKit          3D

  0  0  0  0  0  0  0  0  0  0999 V3000
M  V30 BEGIN CTAB
M  V30 COUNTS 48 51 0 0 0
M  V30 BEGIN ATOM
M  V30 1 O 1.754722 1.657912 2.574126 0
M  V30 2 C 0.856577 0.959696 2.040157 0
M  V30 3 N 1.000189 0.699812 0.656811 0
M  V30 4 C 2.103862 1.203234 -0.088770 0
M  V30 5 C 2.045362 2.439221 -0.713453 0
M  V30 6 C 3.132333 2.925839 -1.442925 0
M  V30 7 C 4.260621 2.135861 -1.518867 0
M  V30 8 C 4.351688 0.886642 -0.901410 0
M  V30 9 C 3.245165 0.426394 -0.177292 0
M  V30 10 O 5.463120 0.070883 -0.956450 0
M  V30 11 C 6.570726 0.444256 -1.728258 0
M  V30 12 C 6.145866 1.386085 -2.844052 0
M  V30 13 O 5.432595 2.448855 -2.194035 0
M  V30 14 C -0.220072 0.503023 2.903535 0
M  V30 15 C -0.210981 0.845250 4.235889 0
M  V30 16 C -1.271332 0.378302 5.017767 0
M  V30 17 C -2.288698 -0.402645 4.451482 0
M  V30 18 Br -3.586071 -0.883750 5.765103 0
M  V30 19 C -2.278960 -0.737367 3.103871 0
M  V30 20 S -3.665362 -1.676189 2.736004 0
M  V30 21 O -4.877011 -0.758604 2.906369 0
M  V30 22 O -3.861894 -2.782588 3.745140 0
M  V30 23 N -3.766018 -2.276958 1.131628 0
M  V30 24 C -2.684301 -3.169397 0.828410 0
M  V30 25 C -2.973876 -4.039462 -0.398332 0
M  V30 26 O -4.193740 -4.672560 -0.339922 0
M  V30 27 C -5.147170 -3.624600 -0.328300 0
M  V30 28 C -5.025457 -2.983082 1.015915 0
M  V30 29 C -1.224181 -0.261928 2.366200 0
M  V30 30 H 0.260001 0.121369 0.204918 0
M  V30 31 H 1.162485 3.061213 -0.656051 0
M  V30 32 H 3.170811 3.859982 -1.951073 0
M  V30 33 H 3.253001 -0.529945 0.322357 0
M  V30 34 H 7.298368 1.031181 -1.096653 0
M  V30 35 H 7.126708 -0.425363 -2.133578 0
M  V30 36 H 5.480625 0.827553 -3.542601 0
M  V30 37 H 7.013693 1.774767 -3.387610 0
M  V30 38 H 0.588456 1.447729 4.637876 0
M  V30 39 H -1.188655 0.691532 6.051426 0
M  V30 40 H -1.744350 -2.652248 0.565104 0
M  V30 41 H -2.556861 -3.815375 1.733714 0
M  V30 42 H -2.105569 -4.696924 -0.538809 0
M  V30 43 H -3.017160 -3.308621 -1.249377 0
M  V30 44 H -4.811645 -2.944532 -1.162237 0
M  V30 45 H -6.123205 -4.074015 -0.500531 0
M  V30 46 H -4.980560 -3.822588 1.769341 0
M  V30 47 H -5.881215 -2.308781 1.249269 0
M  V30 48 H -1.288603 -0.546283 1.332899 0
M  V30 END ATOM
M  V30 BEGIN BOND
M  V30 1 2 1 2
M  V30 2 1 2 3
M  V30 3 1 3 4
M  V30 4 2 4 5
M  V30 5 1 5 6
M  V30 6 2 6 7
M  V30 7 1 7 8
M  V30 8 2 8 9
M  V30 9 1 8 10
M  V30 10 1 10 11
M  V30 11 1 11 12
M  V30 12 1 12 13
M  V30 13 1 2 14
M  V30 14 2 14 15
M  V30 15 1 15 16
M  V30 16 2 16 17
M  V30 17 1 17 18
M  V30 18 1 17 19
M  V30 19 1 19 20
M  V30 20 2 20 21
M  V30 21 2 20 22
M  V30 22 1 20 23
M  V30 23 1 23 24
M  V30 24 1 24 25
M  V30 25 1 25 26
M  V30 26 1 26 27
M  V30 27 1 27 28
M  V30 28 2 19 29
M  V30 29 1 9 4
M  V30 30 1 29 14
M  V30 31 1 13 7
M  V30 32 1 28 23
M  V30 33 1 3 30
M  V30 34 1 5 31
M  V30 35 1 6 32
M  V30 36 1 9 33
M  V30 37 1 11 34
M  V30 38 1 11 35
M  V30 39 1 12 36
M  V30 40 1 12 37
M  V30 41 1 15 38
M  V30 42 1 16 39
M  V30 43 1 24 40
M  V30 44 1 24 41
M  V30 45 1 25 42
M  V30 46 1 25 43
M  V30 47 1 27 44
M  V30 48 1 27 45
M  V30 49 1 28 46
M  V30 50 1 28 47
M  V30 51 1 29 48
M  V30 END BOND
M  V30 END CTAB
M  END
>  <Dataset>  (398) 
ChEMBL_Kinases

>  <Ligand_Instance>  (398) 
nan

>  <PDB_ID>  (398) 
nan

>  <Standardized_SMILES>  (398) 
O=C(Nc1ccc2c(c1)OCCO2)c1ccc(Br)c(S(=O)(=O)N2CCOCC2)c1

>  <Name>  (398) 
nan

>  <Pocket>  (398) 
nan

>  <ATP_Site>  (398) 
nan

>  <Peripheral>  (398) 
nan

>  <Num_H_Atoms_ProtBoundConf>  (398) 
nan

>  <Num_Resolved_Atoms>  (398) 
nan

>  <Num_Not_Resolved_Atoms>  (398) 
nan

$$$$
CHEMBL1447264
     RDKit          3D

  0  0  0  0  0  0  0  0  0  0999 V3000
M  V30 BEGIN CTAB
M  V30 COUNTS 49 52 0 0 0
M  V30 BEGIN ATOM
M  V30 1 C 0.666239 -4.636322 0.974804 0
M  V30 2 C -0.263091 -3.601205 1.439924 0
M  V30 3 C -0.560792 -2.389096 0.968346 0
M  V30 4 C 0.096412 -1.906640 -0.216579 0
M  V30 5 O 0.958856 -2.644180 -0.809258 0
M  V30 6 N -0.058924 -0.666705 -0.887512 0
M  V30 7 C 0.595819 -0.196454 -2.060611 0
M  V30 8 C 1.976815 0.257515 -1.909368 0
M  V30 9 C 3.121559 -0.541080 -2.065011 0
M  V30 10 C 4.356383 0.035382 -1.887960 0
M  V30 11 C 4.511695 1.347415 -1.568448 0
M  V30 12 C 3.422570 2.199865 -1.398054 0
M  V30 13 C 2.209570 1.575175 -1.585911 0
M  V30 14 O 3.963926 3.419303 -1.088461 0
M  V30 15 C 5.340290 3.312510 -0.801749 0
M  V30 16 O 5.682002 2.058682 -1.361397 0
M  V30 17 C -1.591025 -1.727163 1.818451 0
M  V30 18 C -1.146442 -0.445157 2.433052 0
M  V30 19 C -2.271418 0.552721 2.385656 0
M  V30 20 C -3.598381 0.037300 2.818895 0
M  V30 21 C -3.623773 -0.136869 4.327152 0
M  V30 22 C -3.954155 -1.232874 2.105338 0
M  V30 23 C -2.900811 -1.540070 1.073521 0
M  V30 24 O -1.873952 -2.657398 2.851408 0
M  V30 25 C -1.103576 -3.761038 2.636180 0
M  V30 26 O -1.241311 -4.699494 3.475564 0
M  V30 27 H 0.226480 -5.184718 0.110845 0
M  V30 28 H 0.860561 -5.373717 1.777668 0
M  V30 29 H 1.693835 -4.237123 0.724830 0
M  V30 30 H -0.766241 -0.011692 -0.432834 0
M  V30 31 H 0.503047 -1.030541 -2.821601 0
M  V30 32 H 0.001276 0.627452 -2.530540 0
M  V30 33 H 2.970142 -1.577935 -2.320339 0
M  V30 34 H 5.219090 -0.631944 -2.021312 0
M  V30 35 H 1.342024 2.242914 -1.453424 0
M  V30 36 H 5.920302 4.130621 -1.276210 0
M  V30 37 H 5.529971 3.238398 0.284716 0
M  V30 38 H -0.823800 -0.615078 3.482878 0
M  V30 39 H -0.281890 0.009431 1.908555 0
M  V30 40 H -2.357291 0.903209 1.325301 0
M  V30 41 H -1.978802 1.483940 2.966511 0
M  V30 42 H -4.365304 0.827506 2.573497 0
M  V30 43 H -4.599269 0.214966 4.722237 0
M  V30 44 H -2.803494 0.487082 4.736772 0
M  V30 45 H -3.445016 -1.195664 4.574873 0
M  V30 46 H -4.905850 -1.083763 1.510318 0
M  V30 47 H -4.081335 -2.073991 2.820746 0
M  V30 48 H -3.086109 -2.529819 0.580162 0
M  V30 49 H -2.893908 -0.741108 0.333980 0
M  V30 END ATOM
M  V30 BEGIN BOND
M  V30 1 1 1 2
M  V30 2 2 2 3
M  V30 3 1 3 4
M  V30 4 2 4 5
M  V30 5 1 4 6
M  V30 6 1 6 7
M  V30 7 1 7 8
M  V30 8 2 8 9
M  V30 9 1 9 10
M  V30 10 2 10 11
M  V30 11 1 11 12
M  V30 12 2 12 13
M  V30 13 1 12 14
M  V30 14 1 14 15
M  V30 15 1 15 16
M  V30 16 1 3 17
M  V30 17 1 17 18
M  V30 18 1 18 19
M  V30 19 1 19 20
M  V30 20 1 20 21
M  V30 21 1 20 22
M  V30 22 1 22 23
M  V30 23 1 17 24
M  V30 24 1 24 25
M  V30 25 2 25 26
M  V30 26 1 25 2
M  V30 27 1 13 8
M  V30 28 1 23 17
M  V30 29 1 16 11
M  V30 30 1 1 27
M  V30 31 1 1 28
M  V30 32 1 1 29
M  V30 33 1 6 30
M  V30 34 1 7 31
M  V30 35 1 7 32
M  V30 36 1 9 33
M  V30 37 1 10 34
M  V30 38 1 13 35
M  V30 39 1 15 36
M  V30 40 1 15 37
M  V30 41 1 18 38
M  V30 42 1 18 39
M  V30 43 1 19 40
M  V30 44 1 19 41
M  V30 45 1 20 42
M  V30 46 1 21 43
M  V30 47 1 21 44
M  V30 48 1 21 45
M  V30 49 1 22 46
M  V30 50 1 22 47
M  V30 51 1 23 48
M  V30 52 1 23 49
M  V30 END BOND
M  V30 END CTAB
M  END
>  <Dataset>  (399) 
ChEMBL_Kinases

>  <Ligand_Instance>  (399) 
nan

>  <PDB_ID>  (399) 
nan

>  <Standardized_SMILES>  (399) 
CC1=C(C(=O)NCc2ccc3c(c2)OCO3)C2(CCC(C)CC2)OC1=O

>  <Name>  (399) 
nan

>  <Pocket>  (399) 
nan

>  <ATP_Site>  (399) 
nan

>  <Peripheral>  (399) 
nan

>  <Num_H_Atoms_ProtBoundConf>  (399) 
nan

>  <Num_Resolved_Atoms>  (399) 
nan

>  <Num_Not_Resolved_Atoms>  (399) 
nan

$$$$
CHEMBL1445664
     RDKit          3D

  0  0  0  0  0  0  0  0  0  0999 V3000
M  V30 BEGIN CTAB
M  V30 COUNTS 42 44 0 0 0
M  V30 BEGIN ATOM
M  V30 1 O 0.903208 -5.685235 2.957274 0
M  V30 2 C 0.797437 -4.297386 2.948799 0 CFG=2
M  V30 3 C 1.149739 -3.784896 1.587208 0
M  V30 4 O 1.923721 -2.631796 1.605625 0
M  V30 5 C 1.426672 -1.682588 2.493652 0
M  V30 6 N 0.040649 -1.474481 2.117385 0
M  V30 7 C -0.268838 -1.000615 0.813445 0
M  V30 8 C 0.694994 -0.721522 -0.129702 0
M  V30 9 C 0.426862 -0.261022 -1.403082 0
M  V30 10 C -0.902322 -0.065049 -1.760040 0
M  V30 11 N -1.208799 0.409324 -3.067169 0
M  V30 12 N -0.967156 1.614152 -3.390182 0
M  V30 13 C -0.388793 2.533615 -2.479264 0
M  V30 14 C -1.240385 3.152052 -1.579779 0
M  V30 15 C -0.821453 4.059219 -0.645972 0
M  V30 16 C 0.528567 4.397743 -0.573460 0
M  V30 17 C 1.394483 3.792319 -1.461474 0
M  V30 18 C 0.945210 2.882160 -2.391663 0
M  V30 19 C -1.880582 -0.335017 -0.840690 0
M  V30 20 C -1.568875 -0.789072 0.407642 0
M  V30 21 C 1.446237 -2.166427 3.916883 0
M  V30 22 C 1.767649 -3.666880 3.940668 0 CFG=2
M  V30 23 O 3.042194 -3.900580 3.462653 0
M  V30 24 H 1.239210 -5.954438 3.852805 0
M  V30 25 H -0.199258 -3.944096 3.246540 0
M  V30 26 H 0.189984 -3.502415 1.071951 0
M  V30 27 H 1.580020 -4.579933 0.980106 0
M  V30 28 H 1.937043 -0.715187 2.410236 0
M  V30 29 H -0.752408 -1.659084 2.769308 0
M  V30 30 H 1.742690 -0.857486 0.100002 0
M  V30 31 H 1.193109 -0.044856 -2.136614 0
M  V30 32 H -2.320073 2.964484 -1.543283 0
M  V30 33 H -1.469784 4.555693 0.067960 0
M  V30 34 H 0.901166 5.097723 0.135670 0
M  V30 35 H 2.474052 3.990107 -1.486319 0
M  V30 36 H 1.602922 2.378369 -3.116081 0
M  V30 37 H -2.931390 -0.192900 -1.086315 0
M  V30 38 H -2.378175 -0.995908 1.121114 0
M  V30 39 H 0.471666 -2.042689 4.393657 0
M  V30 40 H 2.218780 -1.601374 4.468143 0
M  V30 41 H 1.624923 -4.032568 4.968150 0
M  V30 42 H 3.499998 -3.034008 3.285926 0
M  V30 END ATOM
M  V30 BEGIN BOND
M  V30 1 1 1 2
M  V30 2 1 2 3
M  V30 3 1 3 4
M  V30 4 1 4 5
M  V30 5 1 5 6
M  V30 6 1 6 7
M  V30 7 2 7 8
M  V30 8 1 8 9
M  V30 9 2 9 10
M  V30 10 1 10 11
M  V30 11 2 11 12 CFG=2
M  V30 12 1 12 13
M  V30 13 2 13 14
M  V30 14 1 14 15
M  V30 15 2 15 16
M  V30 16 1 16 17
M  V30 17 2 17 18
M  V30 18 1 10 19
M  V30 19 2 19 20
M  V30 20 1 5 21
M  V30 21 1 21 22
M  V30 22 1 22 23
M  V30 23 1 22 2
M  V30 24 1 20 7
M  V30 25 1 18 13
M  V30 26 1 1 24
M  V30 27 1 2 25 CFG=1
M  V30 28 1 3 26
M  V30 29 1 3 27
M  V30 30 1 5 28
M  V30 31 1 6 29
M  V30 32 1 8 30
M  V30 33 1 9 31
M  V30 34 1 14 32
M  V30 35 1 15 33
M  V30 36 1 16 34
M  V30 37 1 17 35
M  V30 38 1 18 36
M  V30 39 1 19 37
M  V30 40 1 20 38
M  V30 41 1 21 39
M  V30 42 1 21 40
M  V30 43 1 22 41 CFG=1
M  V30 44 1 23 42
M  V30 END BOND
M  V30 END CTAB
M  END
>  <Dataset>  (400) 
ChEMBL_Kinases

>  <Ligand_Instance>  (400) 
nan

>  <PDB_ID>  (400) 
nan

>  <Standardized_SMILES>  (400) 
O[C@@H]1COC(Nc2ccc(N=Nc3ccccc3)cc2)C[C@@H]1O

>  <Name>  (400) 
nan

>  <Pocket>  (400) 
nan

>  <ATP_Site>  (400) 
nan

>  <Peripheral>  (400) 
nan

>  <Num_H_Atoms_ProtBoundConf>  (400) 
nan

>  <Num_Resolved_Atoms>  (400) 
nan

>  <Num_Not_Resolved_Atoms>  (400) 
nan

$$$$
CHEMBL1445826
     RDKit          3D

  0  0  0  0  0  0  0  0  0  0999 V3000
M  V30 BEGIN CTAB
M  V30 COUNTS 37 39 0 0 0
M  V30 BEGIN ATOM
M  V30 1 C -1.488736 -3.186014 1.757730 0
M  V30 2 C -0.381588 -2.221463 1.560867 0
M  V30 3 C 0.968304 -2.367847 1.780181 0
M  V30 4 C 1.643254 -1.166714 1.447010 0
M  V30 5 C 3.032539 -1.097628 1.638389 0
M  V30 6 C 4.083733 -0.826319 0.879902 0
M  V30 7 N 5.469343 -0.733143 0.993456 0
M  V30 8 C 6.034781 -0.455019 -0.278916 0
M  V30 9 O 7.264733 -0.313618 -0.499638 0
M  V30 10 N 4.993921 -0.361762 -1.263525 0
M  V30 11 C 3.781424 -0.590334 -0.557658 0
M  V30 12 O 2.712842 -0.561541 -1.218490 0
M  V30 13 C 0.627888 -0.344855 1.036406 0
M  V30 14 C 0.775054 1.028879 0.615888 0
M  V30 15 N -0.581875 -0.976803 1.104133 0
M  V30 16 C -1.847240 -0.396454 0.742194 0
M  V30 17 C -2.657352 0.301657 1.607511 0
M  V30 18 C -3.867035 0.826084 1.156002 0
M  V30 19 C -4.159842 0.591817 -0.169587 0
M  V30 20 C -5.413986 1.128470 -0.664222 0
M  V30 21 N -6.434872 1.550324 -1.062030 0
M  V30 22 C -3.398549 -0.095896 -1.088039 0
M  V30 23 C -2.195374 -0.600993 -0.583827 0
M  V30 24 H -1.059451 -4.077129 2.218494 0
M  V30 25 H -2.273523 -2.749605 2.412761 0
M  V30 26 H -1.876105 -3.482856 0.758989 0
M  V30 27 H 1.362613 -3.314404 2.158560 0
M  V30 28 H 3.391475 -1.314342 2.673891 0
M  V30 29 H 5.893634 -0.868203 1.929024 0
M  V30 30 H 5.184423 -0.163597 -2.268809 0
M  V30 31 H -0.085392 1.621399 1.038613 0
M  V30 32 H 0.618899 1.219321 -0.473641 0
M  V30 33 H 1.628003 1.608560 1.022731 0
M  V30 34 H -2.329069 0.427260 2.629667 0
M  V30 35 H -4.520976 1.377690 1.813088 0
M  V30 36 H -3.731599 -0.217487 -2.108743 0
M  V30 37 H -1.566653 -1.153856 -1.295390 0
M  V30 END ATOM
M  V30 BEGIN BOND
M  V30 1 1 1 2
M  V30 2 2 2 3
M  V30 3 1 3 4
M  V30 4 1 4 5
M  V30 5 2 5 6
M  V30 6 1 6 7
M  V30 7 1 7 8
M  V30 8 2 8 9
M  V30 9 1 8 10
M  V30 10 1 10 11
M  V30 11 2 11 12
M  V30 12 2 4 13
M  V30 13 1 13 14
M  V30 14 1 13 15
M  V30 15 1 15 16
M  V30 16 2 16 17
M  V30 17 1 17 18
M  V30 18 2 18 19
M  V30 19 1 19 20
M  V30 20 3 20 21
M  V30 21 1 19 22
M  V30 22 2 22 23
M  V30 23 1 15 2
M  V30 24 1 23 16
M  V30 25 1 11 6
M  V30 26 1 1 24
M  V30 27 1 1 25
M  V30 28 1 1 26
M  V30 29 1 3 27
M  V30 30 1 5 28
M  V30 31 1 7 29
M  V30 32 1 10 30
M  V30 33 1 14 31
M  V30 34 1 14 32
M  V30 35 1 14 33
M  V30 36 1 17 34
M  V30 37 1 18 35
M  V30 38 1 22 36
M  V30 39 1 23 37
M  V30 END BOND
M  V30 END CTAB
M  END
>  <Dataset>  (401) 
ChEMBL_Kinases

>  <Ligand_Instance>  (401) 
nan

>  <PDB_ID>  (401) 
nan

>  <Standardized_SMILES>  (401) 
Cc1cc(/C=C2/NC(=O)NC2=O)c(C)n1-c1ccc(C#N)cc1

>  <Name>  (401) 
nan

>  <Pocket>  (401) 
nan

>  <ATP_Site>  (401) 
nan

>  <Peripheral>  (401) 
nan

>  <Num_H_Atoms_ProtBoundConf>  (401) 
nan

>  <Num_Resolved_Atoms>  (401) 
nan

>  <Num_Not_Resolved_Atoms>  (401) 
nan

$$$$
CHEMBL1446113
     RDKit          3D

  0  0  0  0  0  0  0  0  0  0999 V3000
M  V30 BEGIN CTAB
M  V30 COUNTS 39 41 0 0 0
M  V30 BEGIN ATOM
M  V30 1 C 0.728852 -5.158065 -1.771392 0
M  V30 2 O 0.870102 -3.854713 -1.273112 0
M  V30 3 C 1.957934 -3.483509 -0.497708 0
M  V30 4 C 2.902381 -4.444406 -0.231124 0
M  V30 5 C 4.016907 -4.178232 0.527127 0
M  V30 6 C 4.162541 -2.908826 1.017421 0
M  V30 7 C 3.196020 -1.978035 0.727947 0
M  V30 8 C 2.061311 -2.181775 -0.022722 0
M  V30 9 N 1.079580 -1.205086 -0.306854 0
M  V30 10 C 0.974028 0.162890 0.062758 0
M  V30 11 O 1.947431 0.509613 0.761168 0
M  V30 12 C -0.254362 0.747285 -0.494807 0
M  V30 13 C -0.504615 2.182027 -0.191473 0
M  V30 14 N -0.619517 2.511383 1.208136 0
M  V30 15 C 0.529281 3.030428 1.850664 0
M  V30 16 O 1.729068 3.334510 1.524664 0
M  V30 17 S -0.003905 3.288361 3.611502 0
M  V30 18 C -1.626617 2.709975 3.335401 0
M  V30 19 C -2.675400 2.594015 4.218790 0
M  V30 20 C -3.901724 2.110183 3.815776 0
M  V30 21 C -3.923527 1.779438 2.480280 0
M  V30 22 C -2.881059 1.892127 1.591645 0
M  V30 23 C -1.664882 2.379629 2.023019 0
M  V30 24 H 1.596088 -5.449489 -2.413205 0
M  V30 25 H 0.782916 -5.834671 -0.876310 0
M  V30 26 H -0.235577 -5.342291 -2.251456 0
M  V30 27 H 2.767930 -5.439847 -0.627947 0
M  V30 28 H 4.718963 -4.978274 0.698125 0
M  V30 29 H 5.045253 -2.726309 1.609004 0
M  V30 30 H 3.432997 -1.028217 1.172205 0
M  V30 31 H 0.300629 -1.622626 -0.910132 0
M  V30 32 H -0.310998 0.604352 -1.606496 0
M  V30 33 H -1.132271 0.163796 -0.071311 0
M  V30 34 H -1.481828 2.442022 -0.679553 0
M  V30 35 H 0.229634 2.859660 -0.687252 0
M  V30 36 H -2.490000 2.899481 5.237652 0
M  V30 37 H -4.715753 2.016936 4.488073 0
M  V30 38 H -4.893757 1.388505 2.127765 0
M  V30 39 H -3.127088 1.566950 0.569843 0
M  V30 END ATOM
M  V30 BEGIN BOND
M  V30 1 1 1 2
M  V30 2 1 2 3
M  V30 3 2 3 4
M  V30 4 1 4 5
M  V30 5 2 5 6
M  V30 6 1 6 7
M  V30 7 2 7 8
M  V30 8 1 8 9
M  V30 9 1 9 10
M  V30 10 2 10 11
M  V30 11 1 10 12
M  V30 12 1 12 13
M  V30 13 1 13 14
M  V30 14 1 14 15
M  V30 15 2 15 16
M  V30 16 1 15 17
M  V30 17 1 17 18
M  V30 18 2 18 19
M  V30 19 1 19 20
M  V30 20 2 20 21
M  V30 21 1 21 22
M  V30 22 2 22 23
M  V30 23 1 8 3
M  V30 24 1 23 14
M  V30 25 1 23 18
M  V30 26 1 1 24
M  V30 27 1 1 25
M  V30 28 1 1 26
M  V30 29 1 4 27
M  V30 30 1 5 28
M  V30 31 1 6 29
M  V30 32 1 7 30
M  V30 33 1 9 31
M  V30 34 1 12 32
M  V30 35 1 12 33
M  V30 36 1 13 34
M  V30 37 1 13 35
M  V30 38 1 19 36
M  V30 39 1 20 37
M  V30 40 1 21 38
M  V30 41 1 22 39
M  V30 END BOND
M  V30 END CTAB
M  END
>  <Dataset>  (402) 
ChEMBL_Kinases

>  <Ligand_Instance>  (402) 
nan

>  <PDB_ID>  (402) 
nan

>  <Standardized_SMILES>  (402) 
COc1ccccc1NC(=O)CCn1c(=O)sc2ccccc21

>  <Name>  (402) 
nan

>  <Pocket>  (402) 
nan

>  <ATP_Site>  (402) 
nan

>  <Peripheral>  (402) 
nan

>  <Num_H_Atoms_ProtBoundConf>  (402) 
nan

>  <Num_Resolved_Atoms>  (402) 
nan

>  <Num_Not_Resolved_Atoms>  (402) 
nan

$$$$
CHEMBL1446506
     RDKit          3D

  0  0  0  0  0  0  0  0  0  0999 V3000
M  V30 BEGIN CTAB
M  V30 COUNTS 48 52 0 0 0
M  V30 BEGIN ATOM
M  V30 1 C 3.630289 -5.330718 1.378259 0
M  V30 2 O 4.476719 -4.910573 0.324683 0
M  V30 3 C 4.496711 -3.613782 -0.166184 0
M  V30 4 C 5.377810 -3.362574 -1.195191 0
M  V30 5 C 5.397913 -2.071622 -1.684258 0
M  V30 6 C 4.565019 -1.111726 -1.145311 0
M  V30 7 C 3.678050 -1.385143 -0.101980 0
M  V30 8 C 2.875385 -0.250025 0.341981 0
M  V30 9 C 3.452569 1.019946 0.254800 0
M  V30 10 C 2.711669 2.108111 0.667454 0
M  V30 11 C 1.432212 1.945380 1.154215 0
M  V30 12 N 0.706199 3.025708 1.559127 0
M  V30 13 C -0.552506 2.860701 2.036562 0
M  V30 14 N -1.057851 1.634101 2.100452 0
M  V30 15 C -0.447487 0.500793 1.735270 0
M  V30 16 N -1.058802 -0.778835 1.838728 0
M  V30 17 C -2.377331 -1.012631 2.329877 0
M  V30 18 C -3.476608 -0.384141 1.582575 0
M  V30 19 C -4.007679 -1.064865 0.476785 0
M  V30 20 C -5.034188 -0.576644 -0.278289 0
M  V30 21 C -5.623055 0.650201 0.013915 0
M  V30 22 C -5.112382 1.330449 1.097322 0
M  V30 23 C -4.074354 0.805770 1.837526 0
M  V30 24 O -5.834579 2.501022 1.199204 0
M  V30 25 C -6.961305 2.451218 0.344368 0
M  V30 26 O -6.647019 1.393814 -0.542865 0
M  V30 27 C 0.827341 0.713709 1.256607 0
M  V30 28 C 1.590617 -0.353964 0.837314 0
M  V30 29 C 3.654213 -2.662838 0.386269 0
M  V30 30 H 3.450527 -6.429258 1.330370 0
M  V30 31 H 2.616377 -4.852932 1.325266 0
M  V30 32 H 4.071208 -5.119931 2.372604 0
M  V30 33 H 6.017471 -4.120696 -1.601694 0
M  V30 34 H 6.088148 -1.869287 -2.492586 0
M  V30 35 H 4.665877 -0.135652 -1.606063 0
M  V30 36 H 4.442801 1.235347 -0.111860 0
M  V30 37 H 3.102239 3.126480 0.625987 0
M  V30 38 H -1.182896 3.657944 2.372746 0
M  V30 39 H -0.537245 -1.628977 1.543821 0
M  V30 40 H -2.464423 -0.602378 3.376200 0
M  V30 41 H -2.601229 -2.098060 2.315233 0
M  V30 42 H -3.619039 -2.028967 0.165213 0
M  V30 43 H -5.434601 -1.121034 -1.136049 0
M  V30 44 H -3.741666 1.385244 2.661303 0
M  V30 45 H -7.081943 3.378147 -0.245637 0
M  V30 46 H -7.883385 2.207450 0.925520 0
M  V30 47 H 1.254659 -1.372637 0.857102 0
M  V30 48 H 2.973577 -2.848855 1.178036 0
M  V30 END ATOM
M  V30 BEGIN BOND
M  V30 1 1 1 2
M  V30 2 1 2 3
M  V30 3 2 3 4
M  V30 4 1 4 5
M  V30 5 2 5 6
M  V30 6 1 6 7
M  V30 7 1 7 8
M  V30 8 2 8 9
M  V30 9 1 9 10
M  V30 10 2 10 11
M  V30 11 1 11 12
M  V30 12 2 12 13
M  V30 13 1 13 14
M  V30 14 2 14 15
M  V30 15 1 15 16
M  V30 16 1 16 17
M  V30 17 1 17 18
M  V30 18 2 18 19
M  V30 19 1 19 20
M  V30 20 2 20 21
M  V30 21 1 21 22
M  V30 22 2 22 23
M  V30 23 1 22 24
M  V30 24 1 24 25
M  V30 25 1 25 26
M  V30 26 1 15 27
M  V30 27 2 27 28
M  V30 28 2 7 29
M  V30 29 1 29 3
M  V30 30 1 28 8
M  V30 31 1 27 11
M  V30 32 1 23 18
M  V30 33 1 26 21
M  V30 34 1 1 30
M  V30 35 1 1 31
M  V30 36 1 1 32
M  V30 37 1 4 33
M  V30 38 1 5 34
M  V30 39 1 6 35
M  V30 40 1 9 36
M  V30 41 1 10 37
M  V30 42 1 13 38
M  V30 43 1 16 39
M  V30 44 1 17 40
M  V30 45 1 17 41
M  V30 46 1 19 42
M  V30 47 1 20 43
M  V30 48 1 23 44
M  V30 49 1 25 45
M  V30 50 1 25 46
M  V30 51 1 28 47
M  V30 52 1 29 48
M  V30 END BOND
M  V30 END CTAB
M  END
>  <Dataset>  (403) 
ChEMBL_Kinases

>  <Ligand_Instance>  (403) 
nan

>  <PDB_ID>  (403) 
nan

>  <Standardized_SMILES>  (403) 
COc1cccc(-c2ccc3ncnc(NCc4ccc5c(c4)OCO5)c3c2)c1

>  <Name>  (403) 
nan

>  <Pocket>  (403) 
nan

>  <ATP_Site>  (403) 
nan

>  <Peripheral>  (403) 
nan

>  <Num_H_Atoms_ProtBoundConf>  (403) 
nan

>  <Num_Resolved_Atoms>  (403) 
nan

>  <Num_Not_Resolved_Atoms>  (403) 
nan

$$$$
CHEMBL1446539
     RDKit          3D

  0  0  0  0  0  0  0  0  0  0999 V3000
M  V30 BEGIN CTAB
M  V30 COUNTS 49 52 0 0 0
M  V30 BEGIN ATOM
M  V30 1 C 1.687923 -3.506113 -2.169018 0
M  V30 2 C 2.986832 -3.255175 -1.491718 0
M  V30 3 N 3.932037 -4.187960 -1.227344 0
M  V30 4 O 4.930823 -3.620278 -0.629781 0
M  V30 5 C 4.704947 -2.324777 -0.473240 0
M  V30 6 C 5.538354 -1.259946 0.146478 0
M  V30 7 C 3.463055 -2.046787 -1.014710 0
M  V30 8 C 2.682449 -0.805434 -1.136555 0
M  V30 9 C 2.835430 -0.006140 -2.267066 0
M  V30 10 C 2.075985 1.165202 -2.345348 0
M  V30 11 C 1.198937 1.527739 -1.339354 0
M  V30 12 N 0.494594 2.648081 -1.449650 0
M  V30 13 C -0.342691 2.970908 -0.463555 0
M  V30 14 N -0.483210 2.189404 0.627269 0
M  V30 15 C 0.191590 1.042498 0.814385 0
M  V30 16 N 0.013667 0.263570 1.969897 0
M  V30 17 C -0.897923 0.647364 3.002657 0
M  V30 18 C -2.339807 0.727118 2.576917 0
M  V30 19 N -2.862915 -0.506021 2.085529 0
M  V30 20 C -4.249770 -0.407274 1.680793 0
M  V30 21 C -5.111888 -0.335765 2.895876 0
M  V30 22 O -5.034592 -1.473905 3.689767 0
M  V30 23 C -4.018701 -2.331834 3.287624 0
M  V30 24 C -2.737706 -1.610142 2.983112 0
M  V30 25 C 1.046806 0.742154 -0.225379 0
M  V30 26 C 1.797062 -0.403100 -0.161246 0
M  V30 27 H 1.813617 -4.370430 -2.842977 0
M  V30 28 H 0.964420 -3.817531 -1.386561 0
M  V30 29 H 1.294716 -2.610889 -2.664159 0
M  V30 30 H 6.152941 -0.768449 -0.616525 0
M  V30 31 H 4.887131 -0.550893 0.689871 0
M  V30 32 H 6.228616 -1.705261 0.903037 0
M  V30 33 H 3.518098 -0.265022 -3.075905 0
M  V30 34 H 2.211582 1.778374 -3.241882 0
M  V30 35 H -0.944183 3.879984 -0.504972 0
M  V30 36 H 0.499333 -0.627378 2.185283 0
M  V30 37 H -0.769184 0.124839 3.970581 0
M  V30 38 H -0.618693 1.717695 3.250540 0
M  V30 39 H -2.921462 1.090874 3.470519 0
M  V30 40 H -2.415617 1.498086 1.790876 0
M  V30 41 H -4.445363 0.448194 1.030608 0
M  V30 42 H -4.502987 -1.366325 1.146846 0
M  V30 43 H -4.878489 0.529333 3.547762 0
M  V30 44 H -6.163206 -0.166620 2.564568 0
M  V30 45 H -4.396766 -2.941192 2.444447 0
M  V30 46 H -3.854398 -3.024337 4.135166 0
M  V30 47 H -2.222584 -1.377491 3.935903 0
M  V30 48 H -2.077368 -2.368061 2.476741 0
M  V30 49 H 1.731460 -1.058340 0.669495 0
M  V30 END ATOM
M  V30 BEGIN BOND
M  V30 1 1 1 2
M  V30 2 2 2 3
M  V30 3 1 3 4
M  V30 4 1 4 5
M  V30 5 1 5 6
M  V30 6 2 5 7
M  V30 7 1 7 8
M  V30 8 2 8 9
M  V30 9 1 9 10
M  V30 10 2 10 11
M  V30 11 1 11 12
M  V30 12 2 12 13
M  V30 13 1 13 14
M  V30 14 2 14 15
M  V30 15 1 15 16
M  V30 16 1 16 17
M  V30 17 1 17 18
M  V30 18 1 18 19
M  V30 19 1 19 20
M  V30 20 1 20 21
M  V30 21 1 21 22
M  V30 22 1 22 23
M  V30 23 1 23 24
M  V30 24 1 15 25
M  V30 25 2 25 26
M  V30 26 1 7 2
M  V30 27 1 26 8
M  V30 28 1 25 11
M  V30 29 1 24 19
M  V30 30 1 1 27
M  V30 31 1 1 28
M  V30 32 1 1 29
M  V30 33 1 6 30
M  V30 34 1 6 31
M  V30 35 1 6 32
M  V30 36 1 9 33
M  V30 37 1 10 34
M  V30 38 1 13 35
M  V30 39 1 16 36
M  V30 40 1 17 37
M  V30 41 1 17 38
M  V30 42 1 18 39
M  V30 43 1 18 40
M  V30 44 1 20 41
M  V30 45 1 20 42
M  V30 46 1 21 43
M  V30 47 1 21 44
M  V30 48 1 23 45
M  V30 49 1 23 46
M  V30 50 1 24 47
M  V30 51 1 24 48
M  V30 52 1 26 49
M  V30 END BOND
M  V30 END CTAB
M  END
>  <Dataset>  (404) 
ChEMBL_Kinases

>  <Ligand_Instance>  (404) 
nan

>  <PDB_ID>  (404) 
nan

>  <Standardized_SMILES>  (404) 
Cc1noc(C)c1-c1ccc2ncnc(NCCN3CCOCC3)c2c1

>  <Name>  (404) 
nan

>  <Pocket>  (404) 
nan

>  <ATP_Site>  (404) 
nan

>  <Peripheral>  (404) 
nan

>  <Num_H_Atoms_ProtBoundConf>  (404) 
nan

>  <Num_Resolved_Atoms>  (404) 
nan

>  <Num_Not_Resolved_Atoms>  (404) 
nan

$$$$
CHEMBL1446569
     RDKit          3D

  0  0  0  0  0  0  0  0  0  0999 V3000
M  V30 BEGIN CTAB
M  V30 COUNTS 39 40 0 0 0
M  V30 BEGIN ATOM
M  V30 1 C 0.927502 -5.470776 3.181428 0
M  V30 2 C 2.046772 -4.886146 2.297238 0
M  V30 3 O 1.609454 -4.366439 1.177275 0
M  V30 4 C 1.164954 -3.916819 0.080195 0
M  V30 5 O 0.649104 -5.002666 -0.348338 0
M  V30 6 C 1.252844 -2.526724 -0.479729 0
M  V30 7 C 0.545332 -2.559214 -1.828657 0
M  V30 8 S 0.590524 -0.910639 -2.604983 0
M  V30 9 C -0.394763 0.186994 -1.596554 0
M  V30 10 N 0.226885 0.846981 -0.588326 0
M  V30 11 C -0.404491 1.699461 0.238294 0
M  V30 12 C 0.380515 2.344315 1.283438 0
M  V30 13 C 1.723141 2.039674 1.360243 0
M  V30 14 C 2.539041 2.617548 2.333909 0
M  V30 15 C 1.946811 3.502299 3.211685 0
M  V30 16 C 0.620473 3.833048 3.172012 0
M  V30 17 C -0.143893 3.236712 2.193098 0
M  V30 18 C -1.752518 1.901334 0.036492 0
M  V30 19 C -2.415169 1.243661 -0.982511 0
M  V30 20 C -3.875787 1.451540 -1.213877 0
M  V30 21 F -4.202738 1.254778 -2.520651 0
M  V30 22 F -4.502751 0.433360 -0.486542 0
M  V30 23 F -4.303065 2.633473 -0.692017 0
M  V30 24 N -1.725314 0.392693 -1.787827 0
M  V30 25 H 1.199681 -5.373659 4.231811 0
M  V30 26 H 0.030870 -4.852166 2.978525 0
M  V30 27 H 0.715243 -6.509360 2.853262 0
M  V30 28 H 2.838694 -5.698141 2.223426 0
M  V30 29 H 2.519289 -4.074938 2.945809 0
M  V30 30 H 0.781348 -1.808346 0.195764 0
M  V30 31 H 2.321959 -2.286310 -0.620967 0
M  V30 32 H 1.072406 -3.296814 -2.472752 0
M  V30 33 H -0.485415 -2.954838 -1.725686 0
M  V30 34 H 2.206483 1.337917 0.668267 0
M  V30 35 H 3.575435 2.365014 2.372001 0
M  V30 36 H 2.608297 3.926442 3.947195 0
M  V30 37 H 0.167779 4.534550 3.873252 0
M  V30 38 H -1.190029 3.488909 2.151140 0
M  V30 39 H -2.277940 2.582490 0.689771 0
M  V30 END ATOM
M  V30 BEGIN BOND
M  V30 1 1 1 2
M  V30 2 1 2 3
M  V30 3 1 3 4
M  V30 4 2 4 5
M  V30 5 1 4 6
M  V30 6 1 6 7
M  V30 7 1 7 8
M  V30 8 1 8 9
M  V30 9 2 9 10
M  V30 10 1 10 11
M  V30 11 1 11 12
M  V30 12 2 12 13
M  V30 13 1 13 14
M  V30 14 2 14 15
M  V30 15 1 15 16
M  V30 16 2 16 17
M  V30 17 2 11 18
M  V30 18 1 18 19
M  V30 19 1 19 20
M  V30 20 1 20 21
M  V30 21 1 20 22
M  V30 22 1 20 23
M  V30 23 2 19 24
M  V30 24 1 24 9
M  V30 25 1 17 12
M  V30 26 1 1 25
M  V30 27 1 1 26
M  V30 28 1 1 27
M  V30 29 1 2 28
M  V30 30 1 2 29
M  V30 31 1 6 30
M  V30 32 1 6 31
M  V30 33 1 7 32
M  V30 34 1 7 33
M  V30 35 1 13 34
M  V30 36 1 14 35
M  V30 37 1 15 36
M  V30 38 1 16 37
M  V30 39 1 17 38
M  V30 40 1 18 39
M  V30 END BOND
M  V30 END CTAB
M  END
>  <Dataset>  (405) 
ChEMBL_Kinases

>  <Ligand_Instance>  (405) 
nan

>  <PDB_ID>  (405) 
nan

>  <Standardized_SMILES>  (405) 
CCOC(=O)CCSc1nc(-c2ccccc2)cc(C(F)(F)F)n1

>  <Name>  (405) 
nan

>  <Pocket>  (405) 
nan

>  <ATP_Site>  (405) 
nan

>  <Peripheral>  (405) 
nan

>  <Num_H_Atoms_ProtBoundConf>  (405) 
nan

>  <Num_Resolved_Atoms>  (405) 
nan

>  <Num_Not_Resolved_Atoms>  (405) 
nan

$$$$
CHEMBL1446875
     RDKit          3D

  0  0  0  0  0  0  0  0  0  0999 V3000
M  V30 BEGIN CTAB
M  V30 COUNTS 35 37 0 0 0
M  V30 BEGIN ATOM
M  V30 1 C -2.378820 0.745718 3.521532 0
M  V30 2 C -1.811699 -0.101828 2.469337 0
M  V30 3 C -0.750801 0.295056 1.783949 0
M  V30 4 C -0.131566 -0.491657 0.724838 0
M  V30 5 C 0.925466 -0.120295 0.026361 0
M  V30 6 C 1.632813 -0.807609 -1.046674 0
M  V30 7 O 1.361926 -1.924737 -1.529042 0
M  V30 8 C 2.750834 0.007827 -1.511934 0
M  V30 9 C 3.702485 -0.223116 -2.506604 0
M  V30 10 C 4.690974 0.688055 -2.794862 0
M  V30 11 C 4.729813 1.857536 -2.072515 0
M  V30 12 C 3.787958 2.082597 -1.090352 0
M  V30 13 C 2.785437 1.182093 -0.782729 0
M  V30 14 C 1.673462 1.122943 0.166597 0
M  V30 15 O 1.505599 2.086948 0.939547 0
M  V30 16 C -0.796589 -1.766736 0.490295 0
M  V30 17 C -1.858208 -2.171102 1.171482 0
M  V30 18 C -2.530500 -3.473584 0.925661 0
M  V30 19 N -2.399916 -1.340242 2.190303 0
M  V30 20 C -3.558420 -1.761918 2.946344 0
M  V30 21 H -1.829836 1.687740 3.591424 0
M  V30 22 H -3.473616 0.838537 3.492251 0
M  V30 23 H -2.159356 0.208953 4.491941 0
M  V30 24 H -0.341384 1.257075 2.042912 0
M  V30 25 H 3.699145 -1.122957 -3.085982 0
M  V30 26 H 5.430218 0.494427 -3.576739 0
M  V30 27 H 5.478346 2.628063 -2.238673 0
M  V30 28 H 3.827175 3.008956 -0.525682 0
M  V30 29 H -0.477957 -2.466298 -0.245434 0
M  V30 30 H -2.087850 -4.207471 1.649755 0
M  V30 31 H -2.282077 -3.865887 -0.098600 0
M  V30 32 H -3.605985 -3.440352 1.107793 0
M  V30 33 H -4.446763 -1.698648 2.287921 0
M  V30 34 H -3.695316 -1.229014 3.880326 0
M  V30 35 H -3.470826 -2.850526 3.234543 0
M  V30 END ATOM
M  V30 BEGIN BOND
M  V30 1 1 1 2
M  V30 2 2 2 3
M  V30 3 1 3 4
M  V30 4 2 4 5 CFG=2
M  V30 5 1 5 6
M  V30 6 2 6 7
M  V30 7 1 6 8
M  V30 8 2 8 9
M  V30 9 1 9 10
M  V30 10 2 10 11
M  V30 11 1 11 12
M  V30 12 2 12 13
M  V30 13 1 13 14
M  V30 14 2 14 15
M  V30 15 1 4 16
M  V30 16 2 16 17
M  V30 17 1 17 18
M  V30 18 1 17 19
M  V30 19 1 19 20
M  V30 20 1 19 2
M  V30 21 1 14 5
M  V30 22 1 13 8
M  V30 23 1 1 21
M  V30 24 1 1 22
M  V30 25 1 1 23
M  V30 26 1 3 24
M  V30 27 1 9 25
M  V30 28 1 10 26
M  V30 29 1 11 27
M  V30 30 1 12 28
M  V30 31 1 16 29
M  V30 32 1 18 30
M  V30 33 1 18 31
M  V30 34 1 18 32
M  V30 35 1 20 33
M  V30 36 1 20 34
M  V30 37 1 20 35
M  V30 END BOND
M  V30 END CTAB
M  END
>  <Dataset>  (406) 
ChEMBL_Kinases

>  <Ligand_Instance>  (406) 
nan

>  <PDB_ID>  (406) 
nan

>  <Standardized_SMILES>  (406) 
CC1=CC(=C2C(=O)c3ccccc3C2=O)C=C(C)N1C

>  <Name>  (406) 
nan

>  <Pocket>  (406) 
nan

>  <ATP_Site>  (406) 
nan

>  <Peripheral>  (406) 
nan

>  <Num_H_Atoms_ProtBoundConf>  (406) 
nan

>  <Num_Resolved_Atoms>  (406) 
nan

>  <Num_Not_Resolved_Atoms>  (406) 
nan

$$$$
CHEMBL1446905
     RDKit          3D

  0  0  0  0  0  0  0  0  0  0999 V3000
M  V30 BEGIN CTAB
M  V30 COUNTS 60 64 0 0 0
M  V30 BEGIN ATOM
M  V30 1 C 0.121182 -1.477720 5.403764 0
M  V30 2 C 1.577142 -1.272277 5.287651 0
M  V30 3 N 2.576617 -1.254429 6.190022 0
M  V30 4 O 3.723136 -1.033222 5.625603 0
M  V30 5 C 3.541197 -0.894486 4.330407 0
M  V30 6 C 4.741666 -0.635157 3.518419 0
M  V30 7 C 2.191988 -1.039216 4.076134 0
M  V30 8 C 1.685728 -0.934771 2.713005 0
M  V30 9 O 1.233921 -2.025906 2.260350 0
M  V30 10 N 1.692669 0.272181 1.950940 0
M  V30 11 C 2.231915 1.475918 2.553154 0
M  V30 12 C 1.321557 2.634849 2.207085 0
M  V30 13 C -0.000045 2.149343 1.656388 0
M  V30 14 C 0.153882 1.310632 0.434292 0 CFG=2
M  V30 15 C 0.482213 2.237499 -0.719045 0
M  V30 16 C -0.808657 2.225220 -1.507090 0
M  V30 17 N -1.167135 0.823478 -1.384184 0
M  V30 18 C -1.455629 -0.156458 -2.396757 0
M  V30 19 C -1.331303 0.207283 -3.720357 0
M  V30 20 C -1.622456 -0.769827 -4.680155 0
M  V30 21 C -2.014085 -2.032155 -4.248022 0
M  V30 22 C -2.135894 -2.387133 -2.927152 0
M  V30 23 C -2.551762 -3.727412 -2.526138 0
M  V30 24 C -3.274107 -3.890093 -1.335595 0
M  V30 25 C -3.704533 -5.146980 -0.891964 0
M  V30 26 C -3.338736 -6.164014 -1.747142 0
M  V30 27 C -2.635850 -6.113811 -2.930261 0
M  V30 28 C -2.249841 -4.820924 -3.290394 0
M  V30 29 C -1.845524 -1.412502 -1.985363 0
M  V30 30 C -1.167205 0.626350 0.054356 0
M  V30 31 C 1.160944 0.232035 0.612658 0
M  V30 32 H -0.257431 -2.077894 4.561377 0
M  V30 33 H -0.117257 -2.054920 6.337530 0
M  V30 34 H -0.438682 -0.525462 5.454166 0
M  V30 35 H 5.439329 0.081575 3.985677 0
M  V30 36 H 4.512310 -0.304412 2.473242 0
M  V30 37 H 5.315799 -1.590892 3.387111 0
M  V30 38 H 2.287650 1.407963 3.649794 0
M  V30 39 H 3.214300 1.690406 2.076280 0
M  V30 40 H 1.097885 3.226028 3.118228 0
M  V30 41 H 1.782143 3.339710 1.481173 0
M  V30 42 H -0.605976 1.622663 2.397679 0
M  V30 43 H -0.574400 3.087807 1.407147 0
M  V30 44 H 0.773470 3.250794 -0.391600 0
M  V30 45 H 1.290621 1.787214 -1.326717 0
M  V30 46 H -0.670505 2.561022 -2.550932 0
M  V30 47 H -1.526155 2.881595 -0.969696 0
M  V30 48 H -1.024890 1.195584 -4.024995 0
M  V30 49 H -1.552770 -0.575742 -5.740886 0
M  V30 50 H -2.232904 -2.763909 -5.009821 0
M  V30 51 H -3.519887 -3.023789 -0.718221 0
M  V30 52 H -4.250847 -5.315475 -0.002271 0
M  V30 53 H -3.663188 -7.166882 -1.424661 0
M  V30 54 H -2.436258 -7.022031 -3.481260 0
M  V30 55 H -1.689230 -4.725583 -4.219845 0
M  V30 56 H -1.954671 -1.738566 -0.959687 0
M  V30 57 H -1.984308 1.179645 0.566481 0
M  V30 58 H -1.162153 -0.423301 0.363931 0
M  V30 59 H 0.778000 -0.773435 0.351631 0
M  V30 60 H 1.993684 0.419030 -0.110596 0
M  V30 END ATOM
M  V30 BEGIN BOND
M  V30 1 1 1 2
M  V30 2 2 2 3
M  V30 3 1 3 4
M  V30 4 1 4 5
M  V30 5 1 5 6
M  V30 6 2 5 7
M  V30 7 1 7 8
M  V30 8 2 8 9
M  V30 9 1 8 10
M  V30 10 1 10 11
M  V30 11 1 11 12
M  V30 12 1 12 13
M  V30 13 1 14 13 CFG=1
M  V30 14 1 14 15
M  V30 15 1 15 16
M  V30 16 1 16 17
M  V30 17 1 17 18
M  V30 18 2 18 19
M  V30 19 1 19 20
M  V30 20 2 20 21
M  V30 21 1 21 22
M  V30 22 1 22 23
M  V30 23 2 23 24
M  V30 24 1 24 25
M  V30 25 2 25 26
M  V30 26 1 26 27
M  V30 27 2 27 28
M  V30 28 2 22 29
M  V30 29 1 17 30
M  V30 30 1 14 31
M  V30 31 1 7 2
M  V30 32 1 31 10
M  V30 33 1 30 14
M  V30 34 1 29 18
M  V30 35 1 28 23
M  V30 36 1 1 32
M  V30 37 1 1 33
M  V30 38 1 1 34
M  V30 39 1 6 35
M  V30 40 1 6 36
M  V30 41 1 6 37
M  V30 42 1 11 38
M  V30 43 1 11 39
M  V30 44 1 12 40
M  V30 45 1 12 41
M  V30 46 1 13 42
M  V30 47 1 13 43
M  V30 48 1 15 44
M  V30 49 1 15 45
M  V30 50 1 16 46
M  V30 51 1 16 47
M  V30 52 1 19 48
M  V30 53 1 20 49
M  V30 54 1 21 50
M  V30 55 1 24 51
M  V30 56 1 25 52
M  V30 57 1 26 53
M  V30 58 1 27 54
M  V30 59 1 28 55
M  V30 60 1 29 56
M  V30 61 1 30 57
M  V30 62 1 30 58
M  V30 63 1 31 59
M  V30 64 1 31 60
M  V30 END BOND
M  V30 END CTAB
M  END
>  <Dataset>  (407) 
ChEMBL_Kinases

>  <Ligand_Instance>  (407) 
nan

>  <PDB_ID>  (407) 
nan

>  <Standardized_SMILES>  (407) 
Cc1noc(C)c1C(=O)N1CCC[C@@]2(CCN(c3cccc(-c4ccccc4)c3)C2)C1

>  <Name>  (407) 
nan

>  <Pocket>  (407) 
nan

>  <ATP_Site>  (407) 
nan

>  <Peripheral>  (407) 
nan

>  <Num_H_Atoms_ProtBoundConf>  (407) 
nan

>  <Num_Resolved_Atoms>  (407) 
nan

>  <Num_Not_Resolved_Atoms>  (407) 
nan

$$$$
CHEMBL1445582
     RDKit          3D

  0  0  0  0  0  0  0  0  0  0999 V3000
M  V30 BEGIN CTAB
M  V30 COUNTS 38 40 0 0 0
M  V30 BEGIN ATOM
M  V30 1 N -0.549773 -3.724698 3.969044 0
M  V30 2 C -0.289070 -3.094567 3.039946 0
M  V30 3 C 0.018597 -2.313814 1.885269 0
M  V30 4 C 1.140534 -2.372375 1.209628 0
M  V30 5 N 2.101085 -3.305243 1.705102 0
M  V30 6 C 1.462781 -1.565750 0.013785 0
M  V30 7 C 2.867989 -1.166934 0.155414 0
M  V30 8 N 3.995811 -0.857762 0.264639 0
M  V30 9 C 1.383101 -2.463709 -1.152602 0
M  V30 10 N 1.321659 -3.167943 -2.089821 0
M  V30 11 C 0.655635 -0.342049 -0.166312 0
M  V30 12 C 1.360688 0.844199 0.387517 0
M  V30 13 C 1.754193 1.882288 -0.457803 0
M  V30 14 C 2.410171 3.004345 0.001045 0
M  V30 15 C 2.678446 3.078486 1.369921 0
M  V30 16 N 2.298968 2.073152 2.198146 0
M  V30 17 C 1.658425 0.980107 1.742063 0
M  V30 18 C -0.739273 -0.374347 0.344644 0
M  V30 19 C -1.767494 -0.655571 -0.731740 0
M  V30 20 C -3.120107 -0.287108 -0.156764 0
M  V30 21 C -3.163049 -0.333766 1.347717 0
M  V30 22 C -2.222511 -1.349989 1.921304 0
M  V30 23 C -0.996844 -1.372230 1.415720 0
M  V30 24 H 3.118018 -3.086088 1.923078 0
M  V30 25 H 1.767425 -4.276363 1.862039 0
M  V30 26 H 0.577809 -0.132013 -1.273618 0
M  V30 27 H 1.555409 1.849421 -1.539966 0
M  V30 28 H 2.709790 3.808476 -0.684683 0
M  V30 29 H 3.192869 3.941699 1.781066 0
M  V30 30 H 1.368992 0.195357 2.428902 0
M  V30 31 H -1.004939 0.617044 0.767335 0
M  V30 32 H -1.559801 -0.132717 -1.684497 0
M  V30 33 H -1.788162 -1.764507 -0.863996 0
M  V30 34 H -3.923697 -0.886243 -0.626834 0
M  V30 35 H -3.281665 0.796161 -0.421707 0
M  V30 36 H -2.832675 0.652150 1.787731 0
M  V30 37 H -4.189502 -0.471371 1.702339 0
M  V30 38 H -2.495114 -2.046863 2.709128 0
M  V30 END ATOM
M  V30 BEGIN BOND
M  V30 1 3 1 2
M  V30 2 1 2 3
M  V30 3 2 3 4
M  V30 4 1 4 5
M  V30 5 1 4 6
M  V30 6 1 6 7
M  V30 7 3 7 8
M  V30 8 1 6 9
M  V30 9 3 9 10
M  V30 10 1 6 11
M  V30 11 1 11 12
M  V30 12 2 12 13
M  V30 13 1 13 14
M  V30 14 2 14 15
M  V30 15 1 15 16
M  V30 16 2 16 17
M  V30 17 1 11 18
M  V30 18 1 18 19
M  V30 19 1 19 20
M  V30 20 1 20 21
M  V30 21 1 21 22
M  V30 22 2 22 23
M  V30 23 1 23 3
M  V30 24 1 17 12
M  V30 25 1 23 18
M  V30 26 1 5 24
M  V30 27 1 5 25
M  V30 28 1 11 26
M  V30 29 1 13 27
M  V30 30 1 14 28
M  V30 31 1 15 29
M  V30 32 1 17 30
M  V30 33 1 18 31
M  V30 34 1 19 32
M  V30 35 1 19 33
M  V30 36 1 20 34
M  V30 37 1 20 35
M  V30 38 1 21 36
M  V30 39 1 21 37
M  V30 40 1 22 38
M  V30 END BOND
M  V30 END CTAB
M  END
>  <Dataset>  (408) 
ChEMBL_Kinases

>  <Ligand_Instance>  (408) 
nan

>  <PDB_ID>  (408) 
nan

>  <Standardized_SMILES>  (408) 
N#CC1=C(N)C(C#N)(C#N)C(c2cccnc2)C2CCCC=C12

>  <Name>  (408) 
nan

>  <Pocket>  (408) 
nan

>  <ATP_Site>  (408) 
nan

>  <Peripheral>  (408) 
nan

>  <Num_H_Atoms_ProtBoundConf>  (408) 
nan

>  <Num_Resolved_Atoms>  (408) 
nan

>  <Num_Not_Resolved_Atoms>  (408) 
nan

$$$$
CHEMBL1464386
     RDKit          3D

  0  0  0  0  0  0  0  0  0  0999 V3000
M  V30 BEGIN CTAB
M  V30 COUNTS 50 54 0 0 0
M  V30 BEGIN ATOM
M  V30 1 C -2.415616 -4.351968 2.848567 0
M  V30 2 C -1.802158 -3.497002 1.811331 0
M  V30 3 N -0.951106 -2.577553 2.317202 0
M  V30 4 C -0.282199 -1.694201 1.554512 0
M  V30 5 O 0.578864 -0.715002 1.706885 0
M  V30 6 C 0.905276 -0.178616 0.574880 0
M  V30 7 C 1.749067 0.854164 0.200274 0
M  V30 8 N 2.488158 1.580737 1.172353 0
M  V30 9 C 3.384975 2.663695 0.902610 0
M  V30 10 C 4.006022 3.251617 2.102521 0
M  V30 11 C 5.210655 2.863396 2.699506 0
M  V30 12 C 5.655853 3.530109 3.837222 0
M  V30 13 C 4.971133 4.569385 4.424763 0
M  V30 14 C 3.801159 4.908242 3.801458 0
M  V30 15 C 3.299337 4.309273 2.691505 0
M  V30 16 N 1.872376 1.179547 -1.116079 0
M  V30 17 C 1.181775 0.511585 -2.087815 0
M  V30 18 N 0.338648 -0.510345 -1.785457 0
M  V30 19 C 0.238800 -0.810322 -0.456239 0
M  V30 20 C -0.514800 -1.775391 0.191651 0
M  V30 21 C -1.383420 -2.713114 -0.325347 0
M  V30 22 C -2.074097 -3.624708 0.455048 0
M  V30 23 C -3.014179 -4.650909 -0.009390 0
M  V30 24 O -3.409905 -4.467899 -1.330583 0
M  V30 25 C -3.178572 -3.207567 -1.803193 0
M  V30 26 C -3.948881 -2.247231 -0.922936 0
M  V30 27 C -3.689672 -3.055057 -3.213483 0
M  V30 28 C -1.684789 -2.849601 -1.802045 0
M  V30 29 H -1.591342 -4.938612 3.322677 0
M  V30 30 H -3.142921 -5.074738 2.498639 0
M  V30 31 H -2.784073 -3.689239 3.660270 0
M  V30 32 H 2.380732 1.316887 2.185042 0
M  V30 33 H 4.210141 2.333389 0.202591 0
M  V30 34 H 2.869612 3.462285 0.328208 0
M  V30 35 H 5.717026 2.054266 2.218698 0
M  V30 36 H 6.605829 3.120548 4.188723 0
M  V30 37 H 5.393214 5.026105 5.304478 0
M  V30 38 H 3.222209 5.733420 4.235744 0
M  V30 39 H 2.354204 4.662117 2.276238 0
M  V30 40 H 1.397458 0.898649 -3.077440 0
M  V30 41 H -3.896262 -4.791208 0.631099 0
M  V30 42 H -2.449400 -5.610489 -0.001219 0
M  V30 43 H -4.357041 -2.726641 -0.010863 0
M  V30 44 H -4.817629 -1.798455 -1.462805 0
M  V30 45 H -3.313862 -1.403889 -0.592602 0
M  V30 46 H -2.848487 -3.212215 -3.904424 0
M  V30 47 H -4.069829 -2.004420 -3.315612 0
M  V30 48 H -4.552057 -3.720819 -3.390706 0
M  V30 49 H -1.147405 -3.684374 -2.256408 0
M  V30 50 H -1.611300 -1.889270 -2.310787 0
M  V30 END ATOM
M  V30 BEGIN BOND
M  V30 1 1 1 2
M  V30 2 2 2 3
M  V30 3 1 3 4
M  V30 4 1 4 5
M  V30 5 1 5 6
M  V30 6 2 6 7
M  V30 7 1 7 8
M  V30 8 1 8 9
M  V30 9 1 9 10
M  V30 10 2 10 11
M  V30 11 1 11 12
M  V30 12 2 12 13
M  V30 13 1 13 14
M  V30 14 2 14 15
M  V30 15 1 7 16
M  V30 16 2 16 17
M  V30 17 1 17 18
M  V30 18 2 18 19
M  V30 19 1 19 20
M  V30 20 1 20 21
M  V30 21 2 21 22
M  V30 22 1 22 23
M  V30 23 1 23 24
M  V30 24 1 24 25
M  V30 25 1 25 26
M  V30 26 1 25 27
M  V30 27 1 25 28
M  V30 28 1 22 2
M  V30 29 2 20 4
M  V30 30 1 28 21
M  V30 31 1 19 6
M  V30 32 1 15 10
M  V30 33 1 1 29
M  V30 34 1 1 30
M  V30 35 1 1 31
M  V30 36 1 8 32
M  V30 37 1 9 33
M  V30 38 1 9 34
M  V30 39 1 11 35
M  V30 40 1 12 36
M  V30 41 1 13 37
M  V30 42 1 14 38
M  V30 43 1 15 39
M  V30 44 1 17 40
M  V30 45 1 23 41
M  V30 46 1 23 42
M  V30 47 1 26 43
M  V30 48 1 26 44
M  V30 49 1 26 45
M  V30 50 1 27 46
M  V30 51 1 27 47
M  V30 52 1 27 48
M  V30 53 1 28 49
M  V30 54 1 28 50
M  V30 END BOND
M  V30 END CTAB
M  END
>  <Dataset>  (409) 
ChEMBL_Kinases

>  <Ligand_Instance>  (409) 
nan

>  <PDB_ID>  (409) 
nan

>  <Standardized_SMILES>  (409) 
Cc1nc2oc3c(NCc4ccccc4)ncnc3c2c2c1COC(C)(C)C2

>  <Name>  (409) 
nan

>  <Pocket>  (409) 
nan

>  <ATP_Site>  (409) 
nan

>  <Peripheral>  (409) 
nan

>  <Num_H_Atoms_ProtBoundConf>  (409) 
nan

>  <Num_Resolved_Atoms>  (409) 
nan

>  <Num_Not_Resolved_Atoms>  (409) 
nan

$$$$
CHEMBL1464358
     RDKit          3D

  0  0  0  0  0  0  0  0  0  0999 V3000
M  V30 BEGIN CTAB
M  V30 COUNTS 39 39 0 0 0
M  V30 BEGIN ATOM
M  V30 1 C -0.025932 -5.537344 2.435236 0
M  V30 2 O 0.031488 -5.389074 1.030772 0
M  V30 3 C 0.478841 -4.229992 0.412176 0
M  V30 4 O 0.878349 -3.194472 1.039827 0
M  V30 5 C 0.471780 -4.248776 -1.082684 0
M  V30 6 N 0.963186 -2.975254 -1.611493 0
M  V30 7 C 0.170235 -1.870316 -1.196094 0
M  V30 8 O -0.858404 -1.856121 -0.460547 0
M  V30 9 C 0.582538 -0.508404 -1.680453 0
M  V30 10 C 0.588595 -0.452660 -3.179793 0
M  V30 11 N -0.309210 0.508355 -1.181911 0
M  V30 12 C 0.184053 1.491288 -0.254713 0
M  V30 13 O 1.380640 1.450268 0.106441 0
M  V30 14 O -0.730662 2.416513 0.165030 0
M  V30 15 C -0.493686 3.471308 1.065983 0
M  V30 16 C -0.059382 2.897235 2.363877 0
M  V30 17 C 1.220179 2.700055 2.839315 0
M  V30 18 C 1.454504 2.133763 4.074313 0
M  V30 19 C 0.425314 1.733610 4.902926 0
M  V30 20 C -0.878712 1.905281 4.483104 0
M  V30 21 C -1.069041 2.475484 3.240640 0
M  V30 22 H 0.900647 -5.894821 2.894604 0
M  V30 23 H -0.355727 -4.611882 2.953830 0
M  V30 24 H -0.802992 -6.303847 2.634453 0
M  V30 25 H 1.085596 -5.071216 -1.469247 0
M  V30 26 H -0.577761 -4.348167 -1.470302 0
M  V30 27 H 1.780007 -2.816132 -2.219181 0
M  V30 28 H 1.584153 -0.344934 -1.224066 0
M  V30 29 H -0.350249 -0.965717 -3.522665 0
M  V30 30 H 0.516663 0.589686 -3.524526 0
M  V30 31 H 1.489329 -0.952931 -3.614093 0
M  V30 32 H -1.276398 0.432550 -1.558652 0
M  V30 33 H 0.308353 4.156294 0.705676 0
M  V30 34 H -1.431956 4.003506 1.247916 0
M  V30 35 H 2.012699 3.025385 2.190153 0
M  V30 36 H 2.502359 2.032953 4.331286 0
M  V30 37 H 0.644656 1.292647 5.865939 0
M  V30 38 H -1.729248 1.614690 5.081522 0
M  V30 39 H -2.117841 2.600383 2.931510 0
M  V30 END ATOM
M  V30 BEGIN BOND
M  V30 1 1 1 2
M  V30 2 1 2 3
M  V30 3 2 3 4
M  V30 4 1 3 5
M  V30 5 1 5 6
M  V30 6 1 6 7
M  V30 7 2 7 8
M  V30 8 1 7 9
M  V30 9 1 9 10
M  V30 10 1 9 11
M  V30 11 1 11 12
M  V30 12 2 12 13
M  V30 13 1 12 14
M  V30 14 1 14 15
M  V30 15 1 15 16
M  V30 16 2 16 17
M  V30 17 1 17 18
M  V30 18 2 18 19
M  V30 19 1 19 20
M  V30 20 2 20 21
M  V30 21 1 21 16
M  V30 22 1 1 22
M  V30 23 1 1 23
M  V30 24 1 1 24
M  V30 25 1 5 25
M  V30 26 1 5 26
M  V30 27 1 6 27
M  V30 28 1 9 28
M  V30 29 1 10 29
M  V30 30 1 10 30
M  V30 31 1 10 31
M  V30 32 1 11 32
M  V30 33 1 15 33
M  V30 34 1 15 34
M  V30 35 1 17 35
M  V30 36 1 18 36
M  V30 37 1 19 37
M  V30 38 1 20 38
M  V30 39 1 21 39
M  V30 END BOND
M  V30 END CTAB
M  END
>  <Dataset>  (410) 
ChEMBL_Kinases

>  <Ligand_Instance>  (410) 
nan

>  <PDB_ID>  (410) 
nan

>  <Standardized_SMILES>  (410) 
COC(=O)CNC(=O)C(C)NC(=O)OCc1ccccc1

>  <Name>  (410) 
nan

>  <Pocket>  (410) 
nan

>  <ATP_Site>  (410) 
nan

>  <Peripheral>  (410) 
nan

>  <Num_H_Atoms_ProtBoundConf>  (410) 
nan

>  <Num_Resolved_Atoms>  (410) 
nan

>  <Num_Not_Resolved_Atoms>  (410) 
nan

$$$$
CHEMBL1464255
     RDKit          3D

  0  0  0  0  0  0  0  0  0  0999 V3000
M  V30 BEGIN CTAB
M  V30 COUNTS 33 34 0 0 0
M  V30 BEGIN ATOM
M  V30 1 C -0.607338 -1.150292 -2.541471 0
M  V30 2 C -0.351251 -2.325569 -1.644946 0
M  V30 3 C 1.040539 -2.245735 -1.067147 0
M  V30 4 C 2.015218 -3.088662 -1.609999 0
M  V30 5 C 3.308897 -3.033081 -1.088567 0
M  V30 6 Br 4.633208 -4.183401 -1.834304 0
M  V30 7 C 3.644837 -2.163968 -0.049453 0
M  V30 8 C 2.604853 -1.384025 0.403051 0
M  V30 9 C 1.322099 -1.373150 -0.044408 0
M  V30 10 N 0.256014 -0.578265 0.412345 0
M  V30 11 C 0.250794 0.387592 1.442517 0
M  V30 12 O 1.302833 0.624568 2.084511 0
M  V30 13 C -0.829075 1.245095 1.959829 0
M  V30 14 C -1.056590 1.135576 3.439911 0
M  V30 15 C -2.515480 1.512499 3.566643 0
M  V30 16 C -3.062740 1.403498 2.168438 0
M  V30 17 O -2.041553 1.060709 1.313562 0
M  V30 18 H 0.097603 -0.312729 -2.341065 0
M  V30 19 H -0.491430 -1.434960 -3.626909 0
M  V30 20 H -1.645985 -0.819575 -2.373524 0
M  V30 21 H -1.118921 -2.435066 -0.822994 0
M  V30 22 H -0.453902 -3.254147 -2.230493 0
M  V30 23 H 1.717603 -3.742894 -2.408377 0
M  V30 24 H 4.641881 -2.109833 0.364681 0
M  V30 25 H 2.884450 -0.719374 1.205482 0
M  V30 26 H -0.700753 -0.629660 0.003537 0
M  V30 27 H -0.500494 2.309223 1.769958 0
M  V30 28 H -0.983476 0.066781 3.723032 0
M  V30 29 H -0.393440 1.798198 4.033154 0
M  V30 30 H -2.605191 2.557179 3.968405 0
M  V30 31 H -3.063572 0.865796 4.283868 0
M  V30 32 H -3.862211 0.626450 2.073387 0
M  V30 33 H -3.496448 2.409150 1.902454 0
M  V30 END ATOM
M  V30 BEGIN BOND
M  V30 1 1 1 2
M  V30 2 1 2 3
M  V30 3 2 3 4
M  V30 4 1 4 5
M  V30 5 1 5 6
M  V30 6 2 5 7
M  V30 7 1 7 8
M  V30 8 2 8 9
M  V30 9 1 9 10
M  V30 10 1 10 11
M  V30 11 2 11 12
M  V30 12 1 11 13
M  V30 13 1 13 14
M  V30 14 1 14 15
M  V30 15 1 15 16
M  V30 16 1 16 17
M  V30 17 1 9 3
M  V30 18 1 17 13
M  V30 19 1 1 18
M  V30 20 1 1 19
M  V30 21 1 1 20
M  V30 22 1 2 21
M  V30 23 1 2 22
M  V30 24 1 4 23
M  V30 25 1 7 24
M  V30 26 1 8 25
M  V30 27 1 10 26
M  V30 28 1 13 27
M  V30 29 1 14 28
M  V30 30 1 14 29
M  V30 31 1 15 30
M  V30 32 1 15 31
M  V30 33 1 16 32
M  V30 34 1 16 33
M  V30 END BOND
M  V30 END CTAB
M  END
>  <Dataset>  (411) 
ChEMBL_Kinases

>  <Ligand_Instance>  (411) 
nan

>  <PDB_ID>  (411) 
nan

>  <Standardized_SMILES>  (411) 
CCc1cc(Br)ccc1NC(=O)C1CCCO1

>  <Name>  (411) 
nan

>  <Pocket>  (411) 
nan

>  <ATP_Site>  (411) 
nan

>  <Peripheral>  (411) 
nan

>  <Num_H_Atoms_ProtBoundConf>  (411) 
nan

>  <Num_Resolved_Atoms>  (411) 
nan

>  <Num_Not_Resolved_Atoms>  (411) 
nan

$$$$
CHEMBL1464245
     RDKit          3D

  0  0  0  0  0  0  0  0  0  0999 V3000
M  V30 BEGIN CTAB
M  V30 COUNTS 37 39 0 0 0
M  V30 BEGIN ATOM
M  V30 1 C -0.292549 -3.667305 1.628394 0
M  V30 2 C 0.766536 -2.940667 0.878848 0
M  V30 3 C 1.925603 -3.611301 0.548662 0
M  V30 4 C 2.884536 -2.893375 -0.150047 0
M  V30 5 C 4.162105 -3.535688 -0.546388 0
M  V30 6 N 2.664667 -1.627421 -0.468138 0
M  V30 7 C 1.536413 -0.953552 -0.153771 0
M  V30 8 N 1.307852 0.408268 -0.499729 0
M  V30 9 N 2.192488 1.121154 -1.161154 0
M  V30 10 C 1.730409 2.372836 -1.358584 0
M  V30 11 C 2.431448 3.481575 -2.064527 0
M  V30 12 C 0.474454 2.460606 -0.787222 0
M  V30 13 C 0.249349 1.204216 -0.259548 0
M  V30 14 N -0.895618 0.750240 0.439835 0
M  V30 15 C -1.192384 0.767723 1.828256 0
M  V30 16 O -0.416799 1.226955 2.709583 0
M  V30 17 C -2.483489 0.217692 2.276528 0
M  V30 18 C -2.858980 0.192698 3.612593 0
M  V30 19 C -4.127856 -0.398161 3.603849 0
M  V30 20 C -4.438251 -0.689362 2.291590 0
M  V30 21 Br -6.027115 -1.503821 1.614308 0
M  V30 22 O -3.422986 -0.302762 1.528892 0
M  V30 23 N 0.632746 -1.670346 0.518123 0
M  V30 24 H -1.104692 -2.973828 1.930167 0
M  V30 25 H -0.696299 -4.468350 0.980112 0
M  V30 26 H 0.197930 -4.070568 2.556722 0
M  V30 27 H 2.132330 -4.645475 0.795550 0
M  V30 28 H 4.013655 -4.179190 -1.445525 0
M  V30 29 H 4.530464 -4.150084 0.284682 0
M  V30 30 H 4.905104 -2.767087 -0.825584 0
M  V30 31 H 1.847734 3.748601 -2.978893 0
M  V30 32 H 3.424386 3.150907 -2.401304 0
M  V30 33 H 2.467215 4.402449 -1.438751 0
M  V30 34 H -0.193964 3.316808 -0.753754 0
M  V30 35 H -1.617863 0.341600 -0.211177 0
M  V30 36 H -2.329553 0.537478 4.493913 0
M  V30 37 H -4.781381 -0.609889 4.426457 0
M  V30 END ATOM
M  V30 BEGIN BOND
M  V30 1 1 1 2
M  V30 2 2 2 3
M  V30 3 1 3 4
M  V30 4 1 4 5
M  V30 5 2 4 6
M  V30 6 1 6 7
M  V30 7 1 7 8
M  V30 8 1 8 9
M  V30 9 2 9 10
M  V30 10 1 10 11
M  V30 11 1 10 12
M  V30 12 2 12 13
M  V30 13 1 13 14
M  V30 14 1 14 15
M  V30 15 2 15 16
M  V30 16 1 15 17
M  V30 17 2 17 18
M  V30 18 1 18 19
M  V30 19 2 19 20
M  V30 20 1 20 21
M  V30 21 1 20 22
M  V30 22 2 7 23
M  V30 23 1 23 2
M  V30 24 1 13 8
M  V30 25 1 22 17
M  V30 26 1 1 24
M  V30 27 1 1 25
M  V30 28 1 1 26
M  V30 29 1 3 27
M  V30 30 1 5 28
M  V30 31 1 5 29
M  V30 32 1 5 30
M  V30 33 1 11 31
M  V30 34 1 11 32
M  V30 35 1 11 33
M  V30 36 1 12 34
M  V30 37 1 14 35
M  V30 38 1 18 36
M  V30 39 1 19 37
M  V30 END BOND
M  V30 END CTAB
M  END
>  <Dataset>  (412) 
ChEMBL_Kinases

>  <Ligand_Instance>  (412) 
nan

>  <PDB_ID>  (412) 
nan

>  <Standardized_SMILES>  (412) 
Cc1cc(C)nc(-n2nc(C)cc2NC(=O)c2ccc(Br)o2)n1

>  <Name>  (412) 
nan

>  <Pocket>  (412) 
nan

>  <ATP_Site>  (412) 
nan

>  <Peripheral>  (412) 
nan

>  <Num_H_Atoms_ProtBoundConf>  (412) 
nan

>  <Num_Resolved_Atoms>  (412) 
nan

>  <Num_Not_Resolved_Atoms>  (412) 
nan

$$$$
CHEMBL1464128
     RDKit          3D

  0  0  0  0  0  0  0  0  0  0999 V3000
M  V30 BEGIN CTAB
M  V30 COUNTS 46 49 0 0 0
M  V30 BEGIN ATOM
M  V30 1 C 2.201113 -5.192161 -0.776549 0
M  V30 2 O 1.686556 -3.909063 -0.533986 0
M  V30 3 C 0.878881 -3.219675 -1.424222 0
M  V30 4 C 0.508941 -3.747092 -2.641861 0
M  V30 5 C -0.293371 -2.976304 -3.443363 0
M  V30 6 C -0.714976 -1.716785 -3.043227 0
M  V30 7 O -1.474021 -0.864706 -3.682672 0
M  V30 8 C -1.642860 0.228625 -2.955999 0
M  V30 9 C -0.946300 0.095421 -1.746442 0
M  V30 10 C -0.764774 0.982875 -0.567299 0
M  V30 11 O -1.941416 1.370386 -0.361246 0
M  V30 12 C 0.613997 1.087242 -0.094351 0
M  V30 13 C 1.646895 1.316840 -0.989062 0
M  V30 14 O 2.728428 1.361129 -0.257459 0
M  V30 15 C 2.451937 1.178775 1.007594 0
M  V30 16 C 3.343758 1.159055 2.058933 0
M  V30 17 C 2.845409 0.942586 3.350268 0
M  V30 18 C 1.484516 0.766651 3.453881 0
M  V30 19 O 1.048536 0.552334 4.753922 0
M  V30 20 C 0.551562 0.779222 2.438987 0
M  V30 21 C -0.888361 0.606693 2.534873 0
M  V30 22 N -1.433270 0.498450 3.870786 0
M  V30 23 C -1.397041 1.760988 4.577250 0
M  V30 24 C -2.814255 0.067556 3.753928 0
M  V30 25 C 1.098192 0.994817 1.193001 0
M  V30 26 C -0.348850 -1.170732 -1.815381 0
M  V30 27 C 0.455854 -1.960152 -1.027264 0
M  V30 28 H 2.658332 -5.555733 0.185297 0
M  V30 29 H 1.356917 -5.876916 -1.020635 0
M  V30 30 H 3.016770 -5.220973 -1.515831 0
M  V30 31 H 0.862621 -4.726023 -2.905384 0
M  V30 32 H -0.604674 -3.355600 -4.404918 0
M  V30 33 H -2.159393 1.174924 -3.039133 0
M  V30 34 H 1.667793 1.446040 -2.066724 0
M  V30 35 H 4.408063 1.301776 1.939589 0
M  V30 36 H 3.510849 0.918500 4.200053 0
M  V30 37 H 1.287678 -0.270926 5.309081 0
M  V30 38 H -1.355873 -0.143087 1.906329 0
M  V30 39 H -1.324951 1.607926 2.177722 0
M  V30 40 H -0.730162 2.512269 4.157549 0
M  V30 41 H -2.425877 2.251000 4.541211 0
M  V30 42 H -1.250895 1.637649 5.688637 0
M  V30 43 H -3.349766 0.060909 4.728326 0
M  V30 44 H -3.422975 0.739858 3.092186 0
M  V30 45 H -2.891116 -0.970212 3.367121 0
M  V30 46 H 0.749875 -1.570827 -0.085613 0
M  V30 END ATOM
M  V30 BEGIN BOND
M  V30 1 1 1 2
M  V30 2 1 2 3
M  V30 3 2 3 4
M  V30 4 1 4 5
M  V30 5 2 5 6
M  V30 6 1 6 7
M  V30 7 1 7 8
M  V30 8 2 8 9
M  V30 9 1 9 10
M  V30 10 2 10 11
M  V30 11 1 10 12
M  V30 12 2 12 13
M  V30 13 1 13 14
M  V30 14 1 14 15
M  V30 15 2 15 16
M  V30 16 1 16 17
M  V30 17 2 17 18
M  V30 18 1 18 19
M  V30 19 1 18 20
M  V30 20 1 20 21
M  V30 21 1 21 22
M  V30 22 1 22 23
M  V30 23 1 22 24
M  V30 24 2 20 25
M  V30 25 1 9 26
M  V30 26 2 26 27
M  V30 27 1 27 3
M  V30 28 1 26 6
M  V30 29 1 25 12
M  V30 30 1 25 15
M  V30 31 1 1 28
M  V30 32 1 1 29
M  V30 33 1 1 30
M  V30 34 1 4 31
M  V30 35 1 5 32
M  V30 36 1 8 33
M  V30 37 1 13 34
M  V30 38 1 16 35
M  V30 39 1 17 36
M  V30 40 1 19 37
M  V30 41 1 21 38
M  V30 42 1 21 39
M  V30 43 1 23 40
M  V30 44 1 23 41
M  V30 45 1 23 42
M  V30 46 1 24 43
M  V30 47 1 24 44
M  V30 48 1 24 45
M  V30 49 1 27 46
M  V30 END BOND
M  V30 END CTAB
M  END
>  <Dataset>  (413) 
ChEMBL_Kinases

>  <Ligand_Instance>  (413) 
nan

>  <PDB_ID>  (413) 
nan

>  <Standardized_SMILES>  (413) 
COc1ccc2occ(C(=O)c3coc4ccc(O)c(CN(C)C)c34)c2c1

>  <Name>  (413) 
nan

>  <Pocket>  (413) 
nan

>  <ATP_Site>  (413) 
nan

>  <Peripheral>  (413) 
nan

>  <Num_H_Atoms_ProtBoundConf>  (413) 
nan

>  <Num_Resolved_Atoms>  (413) 
nan

>  <Num_Not_Resolved_Atoms>  (413) 
nan

$$$$
CHEMBL1464121
     RDKit          3D

  0  0  0  0  0  0  0  0  0  0999 V3000
M  V30 BEGIN CTAB
M  V30 COUNTS 48 50 0 0 0
M  V30 BEGIN ATOM
M  V30 1 C 2.478491 2.168806 -1.428991 0
M  V30 2 C 1.740991 2.708863 -2.606932 0
M  V30 3 O 0.726019 1.924277 -3.125045 0
M  V30 4 C -0.415454 1.465350 -2.544741 0
M  V30 5 C -1.133667 0.710714 -3.477715 0
M  V30 6 C -2.358844 0.115849 -3.148416 0
M  V30 7 C -2.883443 0.266196 -1.883188 0
M  V30 8 O -4.041495 -0.208555 -1.337662 0
M  V30 9 C -5.003185 -0.998558 -1.975352 0
M  V30 10 C -4.507099 -2.321061 -2.467059 0
M  V30 11 C -2.175792 1.008970 -0.961147 0
M  V30 12 N -2.503222 1.313757 0.409789 0
M  V30 13 C -1.936904 0.274256 1.203123 0
M  V30 14 O -1.314840 -0.635534 0.589626 0
M  V30 15 C -2.005065 0.151908 2.705874 0
M  V30 16 S -0.259734 0.020232 3.232899 0
M  V30 17 C 0.452987 -1.527254 2.665029 0
M  V30 18 N 0.588930 -2.795935 3.139783 0
M  V30 19 N 1.232022 -3.506776 2.216515 0
M  V30 20 C 1.499617 -2.703420 1.172962 0
M  V30 21 C 2.188851 -3.004500 -0.096555 0
M  V30 22 C 2.300106 -2.018504 -1.018883 0
M  V30 23 C 2.936672 -2.216152 -2.229411 0
M  V30 24 C 3.449913 -3.470257 -2.441897 0
M  V30 25 N 3.351852 -4.459973 -1.545531 0
M  V30 26 C 2.718222 -4.246954 -0.353129 0
M  V30 27 O 1.016191 -1.523299 1.480499 0
M  V30 28 C -0.957927 1.602659 -1.282781 0
M  V30 29 H 2.031961 2.445842 -0.444731 0
M  V30 30 H 2.596674 1.077122 -1.501216 0
M  V30 31 H 3.493272 2.678414 -1.419228 0
M  V30 32 H 2.503335 2.828575 -3.434898 0
M  V30 33 H 1.447244 3.754684 -2.375249 0
M  V30 34 H -0.877112 0.483194 -4.519664 0
M  V30 35 H -2.967786 -0.475705 -3.804155 0
M  V30 36 H -5.856562 -1.173552 -1.273507 0
M  V30 37 H -5.478312 -0.449364 -2.834673 0
M  V30 38 H -4.897008 -3.158925 -1.831943 0
M  V30 39 H -4.881793 -2.512969 -3.492771 0
M  V30 40 H -3.409589 -2.354568 -2.395091 0
M  V30 41 H -3.009490 2.039807 0.962303 0
M  V30 42 H -2.394947 1.096081 3.146259 0
M  V30 43 H -2.615888 -0.684303 3.037425 0
M  V30 44 H 1.883833 -1.059959 -0.814622 0
M  V30 45 H 2.998595 -1.383064 -2.937537 0
M  V30 46 H 3.949776 -3.629038 -3.389548 0
M  V30 47 H 2.588893 -4.989811 0.440068 0
M  V30 48 H -0.324243 2.200497 -0.649928 0
M  V30 END ATOM
M  V30 BEGIN BOND
M  V30 1 1 1 2
M  V30 2 1 2 3
M  V30 3 1 3 4
M  V30 4 2 4 5
M  V30 5 1 5 6
M  V30 6 2 6 7
M  V30 7 1 7 8
M  V30 8 1 8 9
M  V30 9 1 9 10
M  V30 10 1 7 11
M  V30 11 1 11 12
M  V30 12 1 12 13
M  V30 13 2 13 14
M  V30 14 1 13 15
M  V30 15 1 15 16
M  V30 16 1 16 17
M  V30 17 2 17 18
M  V30 18 1 18 19
M  V30 19 2 19 20
M  V30 20 1 20 21
M  V30 21 2 21 22
M  V30 22 1 22 23
M  V30 23 2 23 24
M  V30 24 1 24 25
M  V30 25 2 25 26
M  V30 26 1 20 27
M  V30 27 2 11 28
M  V30 28 1 28 4
M  V30 29 1 27 17
M  V30 30 1 26 21
M  V30 31 1 1 29
M  V30 32 1 1 30
M  V30 33 1 1 31
M  V30 34 1 2 32
M  V30 35 1 2 33
M  V30 36 1 5 34
M  V30 37 1 6 35
M  V30 38 1 9 36
M  V30 39 1 9 37
M  V30 40 1 10 38
M  V30 41 1 10 39
M  V30 42 1 10 40
M  V30 43 1 12 41
M  V30 44 1 15 42
M  V30 45 1 15 43
M  V30 46 1 22 44
M  V30 47 1 23 45
M  V30 48 1 24 46
M  V30 49 1 26 47
M  V30 50 1 28 48
M  V30 END BOND
M  V30 END CTAB
M  END
>  <Dataset>  (414) 
ChEMBL_Kinases

>  <Ligand_Instance>  (414) 
nan

>  <PDB_ID>  (414) 
nan

>  <Standardized_SMILES>  (414) 
CCOc1ccc(OCC)c(NC(=O)CSc2nnc(-c3cccnc3)o2)c1

>  <Name>  (414) 
nan

>  <Pocket>  (414) 
nan

>  <ATP_Site>  (414) 
nan

>  <Peripheral>  (414) 
nan

>  <Num_H_Atoms_ProtBoundConf>  (414) 
nan

>  <Num_Resolved_Atoms>  (414) 
nan

>  <Num_Not_Resolved_Atoms>  (414) 
nan

$$$$
CHEMBL1464069
     RDKit          3D

  0  0  0  0  0  0  0  0  0  0999 V3000
M  V30 BEGIN CTAB
M  V30 COUNTS 48 51 0 0 0
M  V30 BEGIN ATOM
M  V30 1 C 1.259921 -7.514521 0.970619 0
M  V30 2 O -0.038390 -6.959676 0.864954 0
M  V30 3 C -0.224044 -5.594120 0.697469 0
M  V30 4 C 0.856920 -4.739773 0.629423 0
M  V30 5 C 0.717825 -3.378770 0.463894 0
M  V30 6 C -0.543811 -2.833741 0.360626 0
M  V30 7 C -1.022324 -1.438945 0.180371 0
M  V30 8 C 0.092186 -0.580316 -0.373159 0
M  V30 9 C -0.272272 0.791382 -0.756490 0
M  V30 10 C 0.226734 1.920739 0.005544 0
M  V30 11 C 0.039147 3.164983 -0.619519 0
M  V30 12 C 0.449993 4.356142 -0.059981 0
M  V30 13 C 1.079204 4.389813 1.166745 0
M  V30 14 C 1.271712 3.181365 1.794057 0
M  V30 15 O 1.902401 3.185095 3.029631 0
M  V30 16 C 2.317184 4.417326 3.587130 0
M  V30 17 C 0.857161 2.014989 1.222559 0
M  V30 18 O 1.092818 0.873683 1.923032 0
M  V30 19 C 0.290400 0.256520 2.878945 0
M  V30 20 N -1.701122 0.918590 -1.088258 0
M  V30 21 N -2.387749 2.004242 -1.397785 0
M  V30 22 N -3.650303 1.714759 -1.644621 0
M  V30 23 N -3.806767 0.406715 -1.495606 0
M  V30 24 C -2.586620 -0.092774 -1.146827 0
M  V30 25 N -2.081993 -1.389249 -0.844774 0
M  V30 26 C -1.649683 -3.692025 0.428405 0
M  V30 27 C -1.498009 -5.074595 0.596847 0
M  V30 28 H 1.769838 -7.558429 -0.019255 0
M  V30 29 H 1.249792 -8.512639 1.440849 0
M  V30 30 H 1.921078 -6.893856 1.635813 0
M  V30 31 H 1.878856 -5.082162 0.701277 0
M  V30 32 H 1.472438 -2.625298 0.397648 0
M  V30 33 H -1.504749 -1.044425 1.086814 0
M  V30 34 H 1.021906 -0.663446 0.229726 0
M  V30 35 H 0.390215 -1.180786 -1.299593 0
M  V30 36 H 0.206897 0.949053 -1.792180 0
M  V30 37 H -0.440141 3.323775 -1.598554 0
M  V30 38 H 0.311986 5.320989 -0.529796 0
M  V30 39 H 1.400285 5.300494 1.607789 0
M  V30 40 H 1.503954 5.175468 3.640295 0
M  V30 41 H 2.652563 4.261353 4.644056 0
M  V30 42 H 3.146472 4.901932 3.004306 0
M  V30 43 H 0.685426 0.532361 3.875353 0
M  V30 44 H -0.749925 0.578624 2.709778 0
M  V30 45 H 0.338319 -0.851954 2.723283 0
M  V30 46 H -2.486796 -2.207296 -1.355396 0
M  V30 47 H -2.714741 -3.428838 0.364588 0
M  V30 48 H -2.300168 -5.769967 0.654689 0
M  V30 END ATOM
M  V30 BEGIN BOND
M  V30 1 1 1 2
M  V30 2 1 2 3
M  V30 3 2 3 4
M  V30 4 1 4 5
M  V30 5 2 5 6
M  V30 6 1 6 7
M  V30 7 1 7 8
M  V30 8 1 8 9
M  V30 9 1 9 10
M  V30 10 2 10 11
M  V30 11 1 11 12
M  V30 12 2 12 13
M  V30 13 1 13 14
M  V30 14 1 14 15
M  V30 15 1 15 16
M  V30 16 2 14 17
M  V30 17 1 17 18
M  V30 18 1 18 19
M  V30 19 1 9 20
M  V30 20 1 20 21
M  V30 21 2 21 22
M  V30 22 1 22 23
M  V30 23 2 23 24
M  V30 24 1 24 25
M  V30 25 1 6 26
M  V30 26 2 26 27
M  V30 27 1 27 3
M  V30 28 1 25 7
M  V30 29 1 17 10
M  V30 30 1 24 20
M  V30 31 1 1 28
M  V30 32 1 1 29
M  V30 33 1 1 30
M  V30 34 1 4 31
M  V30 35 1 5 32
M  V30 36 1 7 33
M  V30 37 1 8 34
M  V30 38 1 8 35
M  V30 39 1 9 36
M  V30 40 1 11 37
M  V30 41 1 12 38
M  V30 42 1 13 39
M  V30 43 1 16 40
M  V30 44 1 16 41
M  V30 45 1 16 42
M  V30 46 1 19 43
M  V30 47 1 19 44
M  V30 48 1 19 45
M  V30 49 1 25 46
M  V30 50 1 26 47
M  V30 51 1 27 48
M  V30 END BOND
M  V30 END CTAB
M  END
>  <Dataset>  (415) 
ChEMBL_Kinases

>  <Ligand_Instance>  (415) 
nan

>  <PDB_ID>  (415) 
nan

>  <Standardized_SMILES>  (415) 
COc1ccc(C2CC(c3cccc(OC)c3OC)n3nnnc3N2)cc1

>  <Name>  (415) 
nan

>  <Pocket>  (415) 
nan

>  <ATP_Site>  (415) 
nan

>  <Peripheral>  (415) 
nan

>  <Num_H_Atoms_ProtBoundConf>  (415) 
nan

>  <Num_Resolved_Atoms>  (415) 
nan

>  <Num_Not_Resolved_Atoms>  (415) 
nan

$$$$
CHEMBL1463982
     RDKit          3D

  0  0  0  0  0  0  0  0  0  0999 V3000
M  V30 BEGIN CTAB
M  V30 COUNTS 60 64 0 0 0
M  V30 BEGIN ATOM
M  V30 1 C 8.983962 -5.865095 1.439883 0
M  V30 2 O 8.783354 -4.861967 0.465893 0
M  V30 3 C 7.670515 -4.024062 0.428445 0
M  V30 4 C 6.735440 -4.211140 1.410573 0
M  V30 5 C 5.644969 -3.338176 1.316213 0
M  V30 6 C 5.541621 -2.375549 0.308542 0
M  V30 7 N 4.451607 -1.498339 0.236059 0
M  V30 8 C 3.803196 -0.320402 0.521256 0
M  V30 9 O 4.525840 0.439301 1.235885 0
M  V30 10 C 2.484544 0.107553 0.119812 0
M  V30 11 O 2.140611 1.329006 0.453126 0
M  V30 12 C 0.911015 1.576477 0.019104 0
M  V30 13 C 0.159480 2.726063 0.146796 0
M  V30 14 C -1.109577 2.723786 -0.403429 0
M  V30 15 C -1.625983 1.610313 -1.064491 0
M  V30 16 S -3.222324 1.644026 -1.741191 0
M  V30 17 O -3.335497 0.729843 -2.930473 0
M  V30 18 O -3.574222 3.016921 -2.235548 0
M  V30 19 N -4.393202 1.176700 -0.598581 0
M  V30 20 C -4.452119 2.046375 0.550791 0
M  V30 21 C -4.895645 1.342582 1.798374 0
M  V30 22 C -5.983934 0.337764 1.560758 0
M  V30 23 C -5.675073 -0.550537 0.400075 0
M  V30 24 C -4.301832 -0.157645 -0.113364 0
M  V30 25 O -7.242318 0.928844 1.468414 0
M  V30 26 C -8.171809 -0.062940 1.787941 0
M  V30 27 C -7.383342 -1.060306 2.623493 0
M  V30 28 O -6.134301 -0.489200 2.672167 0
M  V30 29 C -0.874117 0.462965 -1.191455 0
M  V30 30 C 0.394221 0.477891 -0.637474 0
M  V30 31 C 1.425586 -0.443956 -0.554890 0
M  V30 32 C 1.438974 -1.811983 -1.088160 0
M  V30 33 C 6.568910 -2.287580 -0.637282 0
M  V30 34 C 7.688975 -3.129456 -0.603364 0
M  V30 35 H 8.078334 -6.526812 1.505403 0
M  V30 36 H 9.848820 -6.470286 1.073180 0
M  V30 37 H 9.126421 -5.465519 2.457905 0
M  V30 38 H 6.837980 -4.954541 2.169619 0
M  V30 39 H 4.850023 -3.411253 2.050211 0
M  V30 40 H 3.913054 -2.187833 -0.365037 0
M  V30 41 H 0.583582 3.572787 0.661791 0
M  V30 42 H -1.664054 3.645707 -0.286844 0
M  V30 43 H -5.208792 2.819639 0.310696 0
M  V30 44 H -3.447039 2.454008 0.741095 0
M  V30 45 H -5.359923 2.136835 2.447481 0
M  V30 46 H -4.054343 0.936896 2.401553 0
M  V30 47 H -6.428496 -0.343688 -0.409294 0
M  V30 48 H -5.743351 -1.629041 0.635281 0
M  V30 49 H -4.002227 -0.923863 -0.850662 0
M  V30 50 H -3.568727 -0.273581 0.722918 0
M  V30 51 H -8.538378 -0.560911 0.858392 0
M  V30 52 H -8.991344 0.368734 2.390016 0
M  V30 53 H -7.396705 -2.070603 2.148389 0
M  V30 54 H -7.791690 -1.090190 3.657957 0
M  V30 55 H -1.195027 -0.441071 -1.684248 0
M  V30 56 H 0.437362 -1.996862 -1.592220 0
M  V30 57 H 1.592100 -2.570486 -0.299437 0
M  V30 58 H 2.162324 -1.948202 -1.917946 0
M  V30 59 H 6.461369 -1.541765 -1.397699 0
M  V30 60 H 8.477875 -3.061139 -1.327529 0
M  V30 END ATOM
M  V30 BEGIN BOND
M  V30 1 1 1 2
M  V30 2 1 2 3
M  V30 3 2 3 4
M  V30 4 1 4 5
M  V30 5 2 5 6
M  V30 6 1 6 7
M  V30 7 1 7 8
M  V30 8 2 8 9
M  V30 9 1 8 10
M  V30 10 1 10 11
M  V30 11 1 11 12
M  V30 12 2 12 13
M  V30 13 1 13 14
M  V30 14 2 14 15
M  V30 15 1 15 16
M  V30 16 2 16 17
M  V30 17 2 16 18
M  V30 18 1 16 19
M  V30 19 1 19 20
M  V30 20 1 20 21
M  V30 21 1 21 22
M  V30 22 1 22 23
M  V30 23 1 23 24
M  V30 24 1 22 25
M  V30 25 1 25 26
M  V30 26 1 26 27
M  V30 27 1 27 28
M  V30 28 1 15 29
M  V30 29 2 29 30
M  V30 30 1 30 31
M  V30 31 1 31 32
M  V30 32 1 6 33
M  V30 33 2 33 34
M  V30 34 1 34 3
M  V30 35 2 31 10
M  V30 36 1 30 12
M  V30 37 1 24 19
M  V30 38 1 28 22
M  V30 39 1 1 35
M  V30 40 1 1 36
M  V30 41 1 1 37
M  V30 42 1 4 38
M  V30 43 1 5 39
M  V30 44 1 7 40
M  V30 45 1 13 41
M  V30 46 1 14 42
M  V30 47 1 20 43
M  V30 48 1 20 44
M  V30 49 1 21 45
M  V30 50 1 21 46
M  V30 51 1 23 47
M  V30 52 1 23 48
M  V30 53 1 24 49
M  V30 54 1 24 50
M  V30 55 1 26 51
M  V30 56 1 26 52
M  V30 57 1 27 53
M  V30 58 1 27 54
M  V30 59 1 29 55
M  V30 60 1 32 56
M  V30 61 1 32 57
M  V30 62 1 32 58
M  V30 63 1 33 59
M  V30 64 1 34 60
M  V30 END BOND
M  V30 END CTAB
M  END
>  <Dataset>  (416) 
ChEMBL_Kinases

>  <Ligand_Instance>  (416) 
nan

>  <PDB_ID>  (416) 
nan

>  <Standardized_SMILES>  (416) 
COc1ccc(NC(=O)c2oc3ccc(S(=O)(=O)N4CCC5(CC4)OCCO5)cc3c2C)cc1

>  <Name>  (416) 
nan

>  <Pocket>  (416) 
nan

>  <ATP_Site>  (416) 
nan

>  <Peripheral>  (416) 
nan

>  <Num_H_Atoms_ProtBoundConf>  (416) 
nan

>  <Num_Resolved_Atoms>  (416) 
nan

>  <Num_Not_Resolved_Atoms>  (416) 
nan

$$$$
CHEMBL1463960
     RDKit          3D

  0  0  0  0  0  0  0  0  0  0999 V3000
M  V30 BEGIN CTAB
M  V30 COUNTS 42 44 0 0 0
M  V30 BEGIN ATOM
M  V30 1 C 0.714298 -6.307158 2.915472 0
M  V30 2 O 1.907193 -5.824817 2.355551 0
M  V30 3 C 1.959920 -4.641511 1.637600 0
M  V30 4 C 0.920277 -3.770442 1.355493 0
M  V30 5 C 1.169578 -2.632919 0.619858 0
M  V30 6 C 2.409895 -2.288121 0.130701 0
M  V30 7 N 2.599236 -1.097364 -0.623424 0
M  V30 8 C 1.437856 -0.303050 -0.826984 0
M  V30 9 C 0.621785 -0.494515 -1.909696 0
M  V30 10 C -0.481320 0.345308 -1.996963 0
M  V30 11 C -1.441605 0.226298 -3.137332 0
M  V30 12 N -0.732608 1.292009 -1.070623 0
M  V30 13 C 0.091766 1.453646 -0.016725 0
M  V30 14 N -0.153105 2.445105 0.971639 0
M  V30 15 C 0.669292 2.698819 2.140950 0
M  V30 16 C -0.230234 2.578317 3.361997 0
M  V30 17 O -1.300458 3.427421 3.276841 0
M  V30 18 C -2.092866 3.283083 2.163033 0
M  V30 19 C -1.307309 3.318529 0.869978 0
M  V30 20 N 1.169133 0.656538 0.097534 0
M  V30 21 C 3.448267 -3.173137 0.421429 0
M  V30 22 C 3.225833 -4.327617 1.161050 0
M  V30 23 H -0.015830 -5.517881 3.182070 0
M  V30 24 H 0.920811 -6.902404 3.849552 0
M  V30 25 H 0.208252 -6.998147 2.184457 0
M  V30 26 H -0.035359 -4.066397 1.750478 0
M  V30 27 H 0.309634 -1.985097 0.429958 0
M  V30 28 H 3.569070 -0.907552 -0.962149 0
M  V30 29 H 0.820723 -1.252265 -2.653293 0
M  V30 30 H -1.086064 0.806673 -4.012805 0
M  V30 31 H -2.447793 0.617022 -2.827033 0
M  V30 32 H -1.542606 -0.846961 -3.469521 0
M  V30 33 H 0.954812 3.768000 2.085381 0
M  V30 34 H 1.525538 2.012706 2.227823 0
M  V30 35 H 0.405496 2.984540 4.203803 0
M  V30 36 H -0.441225 1.544537 3.633510 0
M  V30 37 H -2.787878 4.152043 2.131523 0
M  V30 38 H -2.743954 2.369935 2.178905 0
M  V30 39 H -1.969744 3.058119 0.038105 0
M  V30 40 H -0.910228 4.368320 0.788793 0
M  V30 41 H 4.428402 -2.914449 0.043094 0
M  V30 42 H 4.098013 -4.947710 1.331682 0
M  V30 END ATOM
M  V30 BEGIN BOND
M  V30 1 1 1 2
M  V30 2 1 2 3
M  V30 3 2 3 4
M  V30 4 1 4 5
M  V30 5 2 5 6
M  V30 6 1 6 7
M  V30 7 1 7 8
M  V30 8 2 8 9
M  V30 9 1 9 10
M  V30 10 1 10 11
M  V30 11 2 10 12
M  V30 12 1 12 13
M  V30 13 1 13 14
M  V30 14 1 14 15
M  V30 15 1 15 16
M  V30 16 1 16 17
M  V30 17 1 17 18
M  V30 18 1 18 19
M  V30 19 2 13 20
M  V30 20 1 6 21
M  V30 21 2 21 22
M  V30 22 1 22 3
M  V30 23 1 20 8
M  V30 24 1 19 14
M  V30 25 1 1 23
M  V30 26 1 1 24
M  V30 27 1 1 25
M  V30 28 1 4 26
M  V30 29 1 5 27
M  V30 30 1 7 28
M  V30 31 1 9 29
M  V30 32 1 11 30
M  V30 33 1 11 31
M  V30 34 1 11 32
M  V30 35 1 15 33
M  V30 36 1 15 34
M  V30 37 1 16 35
M  V30 38 1 16 36
M  V30 39 1 18 37
M  V30 40 1 18 38
M  V30 41 1 19 39
M  V30 42 1 19 40
M  V30 43 1 21 41
M  V30 44 1 22 42
M  V30 END BOND
M  V30 END CTAB
M  END
>  <Dataset>  (417) 
ChEMBL_Kinases

>  <Ligand_Instance>  (417) 
nan

>  <PDB_ID>  (417) 
nan

>  <Standardized_SMILES>  (417) 
COc1ccc(Nc2cc(C)nc(N3CCOCC3)n2)cc1

>  <Name>  (417) 
nan

>  <Pocket>  (417) 
nan

>  <ATP_Site>  (417) 
nan

>  <Peripheral>  (417) 
nan

>  <Num_H_Atoms_ProtBoundConf>  (417) 
nan

>  <Num_Resolved_Atoms>  (417) 
nan

>  <Num_Not_Resolved_Atoms>  (417) 
nan

$$$$
CHEMBL1463921
     RDKit          3D

  0  0  0  0  0  0  0  0  0  0999 V3000
M  V30 BEGIN CTAB
M  V30 COUNTS 44 45 0 0 0
M  V30 BEGIN ATOM
M  V30 1 C -0.060004 -6.801675 0.937395 0
M  V30 2 C 0.536116 -6.342979 2.238498 0
M  V30 3 O 0.047640 -5.090432 2.662008 0
M  V30 4 C 0.173028 -3.924860 1.952289 0
M  V30 5 C 0.805420 -3.829423 0.714095 0
M  V30 6 C 0.934051 -2.658360 -0.003934 0
M  V30 7 C 0.392845 -1.512189 0.558644 0
M  V30 8 C 0.551753 -0.293975 -0.233258 0
M  V30 9 N 1.518149 0.581904 0.149139 0
M  V30 10 O 1.518343 1.614191 -0.673352 0
M  V30 11 C 0.589716 1.456231 -1.585716 0
M  V30 12 C 0.201246 2.336697 -2.722116 0
M  V30 13 C 1.066161 3.583774 -2.750105 0
M  V30 14 C 0.904754 4.345163 -1.484396 0
M  V30 15 O 0.194040 4.090625 -0.486422 0
M  V30 16 N 1.654557 5.547746 -1.352391 0
M  V30 17 C 1.500870 6.287013 -0.129229 0
M  V30 18 N -0.017395 0.282923 -1.329367 0
M  V30 19 C -0.237727 -1.584710 1.784155 0
M  V30 20 C -0.353914 -2.760439 2.480451 0
M  V30 21 O -0.988098 -2.829318 3.711428 0
M  V30 22 C -1.557151 -1.695827 4.335883 0
M  V30 23 C -0.586686 -0.596665 4.629498 0
M  V30 24 H 0.723500 -7.067321 0.177021 0
M  V30 25 H -0.763430 -6.034362 0.509208 0
M  V30 26 H -0.712143 -7.672007 1.148901 0
M  V30 27 H 1.631716 -6.189439 2.040532 0
M  V30 28 H 0.353601 -7.094461 3.002932 0
M  V30 29 H 1.228934 -4.723907 0.274126 0
M  V30 30 H 1.442798 -2.655349 -0.970132 0
M  V30 31 H -0.843914 2.713507 -2.579958 0
M  V30 32 H 0.195806 1.812743 -3.687770 0
M  V30 33 H 2.109418 3.275358 -2.883792 0
M  V30 34 H 0.682277 4.206325 -3.558239 0
M  V30 35 H 2.297861 5.911659 -2.085856 0
M  V30 36 H 0.425764 6.594636 0.017704 0
M  V30 37 H 1.765931 5.635524 0.737625 0
M  V30 38 H 2.154448 7.177430 -0.108979 0
M  V30 39 H -0.626896 -0.665911 2.148400 0
M  V30 40 H -2.391943 -1.268289 3.705024 0
M  V30 41 H -2.065325 -1.978984 5.281424 0
M  V30 42 H -0.969384 0.381448 4.275419 0
M  V30 43 H 0.449743 -0.783109 4.285598 0
M  V30 44 H -0.478591 -0.451725 5.745201 0
M  V30 END ATOM
M  V30 BEGIN BOND
M  V30 1 1 1 2
M  V30 2 1 2 3
M  V30 3 1 3 4
M  V30 4 2 4 5
M  V30 5 1 5 6
M  V30 6 2 6 7
M  V30 7 1 7 8
M  V30 8 2 8 9
M  V30 9 1 9 10
M  V30 10 1 10 11
M  V30 11 1 11 12
M  V30 12 1 12 13
M  V30 13 1 13 14
M  V30 14 2 14 15
M  V30 15 1 14 16
M  V30 16 1 16 17
M  V30 17 2 11 18
M  V30 18 1 7 19
M  V30 19 2 19 20
M  V30 20 1 20 21
M  V30 21 1 21 22
M  V30 22 1 22 23
M  V30 23 1 20 4
M  V30 24 1 18 8
M  V30 25 1 1 24
M  V30 26 1 1 25
M  V30 27 1 1 26
M  V30 28 1 2 27
M  V30 29 1 2 28
M  V30 30 1 5 29
M  V30 31 1 6 30
M  V30 32 1 12 31
M  V30 33 1 12 32
M  V30 34 1 13 33
M  V30 35 1 13 34
M  V30 36 1 16 35
M  V30 37 1 17 36
M  V30 38 1 17 37
M  V30 39 1 17 38
M  V30 40 1 19 39
M  V30 41 1 22 40
M  V30 42 1 22 41
M  V30 43 1 23 42
M  V30 44 1 23 43
M  V30 45 1 23 44
M  V30 END BOND
M  V30 END CTAB
M  END
>  <Dataset>  (418) 
ChEMBL_Kinases

>  <Ligand_Instance>  (418) 
nan

>  <PDB_ID>  (418) 
nan

>  <Standardized_SMILES>  (418) 
CCOc1ccc(-c2noc(CCC(=O)NC)n2)cc1OCC

>  <Name>  (418) 
nan

>  <Pocket>  (418) 
nan

>  <ATP_Site>  (418) 
nan

>  <Peripheral>  (418) 
nan

>  <Num_H_Atoms_ProtBoundConf>  (418) 
nan

>  <Num_Resolved_Atoms>  (418) 
nan

>  <Num_Not_Resolved_Atoms>  (418) 
nan

$$$$
CHEMBL1463875
     RDKit          3D

  0  0  0  0  0  0  0  0  0  0999 V3000
M  V30 BEGIN CTAB
M  V30 COUNTS 38 41 0 0 0
M  V30 BEGIN ATOM
M  V30 1 O 4.387270 0.637067 1.954180 0
M  V30 2 C 3.646255 -0.147254 1.316196 0
M  V30 3 O 4.271832 -1.243828 0.962867 0
M  V30 4 C 3.687917 -2.204404 0.286417 0
M  V30 5 C 4.329255 -3.364672 -0.094097 0
M  V30 6 C 3.659414 -4.348433 -0.810158 0
M  V30 7 C 2.334316 -4.112488 -1.120073 0
M  V30 8 C 1.634023 -2.955541 -0.760353 0
M  V30 9 C 2.363762 -2.015081 -0.046835 0
M  V30 10 C 1.724928 -0.854874 0.334467 0
M  V30 11 C 2.331719 0.161632 1.046702 0
M  V30 12 C 1.685088 1.400612 1.465427 0
M  V30 13 C 2.364310 2.364978 2.174695 0
M  V30 14 S 1.011395 3.665651 2.395757 0
M  V30 15 C -0.221480 2.576716 1.443829 0
M  V30 16 N -1.546052 3.022568 1.240549 0
M  V30 17 N -2.567003 2.369973 0.578657 0
M  V30 18 C -3.055430 1.221400 0.902831 0
M  V30 19 C -4.152300 0.393768 0.288651 0
M  V30 20 C -3.358221 -0.873237 -0.016814 0
M  V30 21 C -2.588125 -1.038018 1.288266 0
M  V30 22 C -2.715183 0.282007 2.009830 0
M  V30 23 N 0.417262 1.578133 1.144460 0
M  V30 24 H 5.380089 -3.509362 0.173183 0
M  V30 25 H 4.136091 -5.263438 -1.119679 0
M  V30 26 H 1.746364 -4.848721 -1.684050 0
M  V30 27 H 0.596712 -2.831963 -1.033958 0
M  V30 28 H 0.665872 -0.717216 0.060964 0
M  V30 29 H 3.297715 2.537080 2.564568 0
M  V30 30 H -1.851421 3.943588 1.608612 0
M  V30 31 H -4.868632 0.123151 1.079622 0
M  V30 32 H -4.587059 0.855172 -0.592500 0
M  V30 33 H -3.998162 -1.730803 -0.247080 0
M  V30 34 H -2.664202 -0.603301 -0.846374 0
M  V30 35 H -1.520071 -1.223475 1.122907 0
M  V30 36 H -3.076865 -1.869982 1.828898 0
M  V30 37 H -3.623786 0.217187 2.642280 0
M  V30 38 H -1.802879 0.584275 2.539337 0
M  V30 END ATOM
M  V30 BEGIN BOND
M  V30 1 2 1 2
M  V30 2 1 2 3
M  V30 3 1 3 4
M  V30 4 2 4 5
M  V30 5 1 5 6
M  V30 6 2 6 7
M  V30 7 1 7 8
M  V30 8 2 8 9
M  V30 9 1 9 10
M  V30 10 2 10 11
M  V30 11 1 11 12
M  V30 12 2 12 13
M  V30 13 1 13 14
M  V30 14 1 14 15
M  V30 15 1 15 16
M  V30 16 1 16 17
M  V30 17 2 17 18 CFG=2
M  V30 18 1 18 19
M  V30 19 1 19 20
M  V30 20 1 20 21
M  V30 21 1 21 22
M  V30 22 2 15 23
M  V30 23 1 11 2
M  V30 24 1 23 12
M  V30 25 1 9 4
M  V30 26 1 22 18
M  V30 27 1 5 24
M  V30 28 1 6 25
M  V30 29 1 7 26
M  V30 30 1 8 27
M  V30 31 1 10 28
M  V30 32 1 13 29
M  V30 33 1 16 30
M  V30 34 1 19 31
M  V30 35 1 19 32
M  V30 36 1 20 33
M  V30 37 1 20 34
M  V30 38 1 21 35
M  V30 39 1 21 36
M  V30 40 1 22 37
M  V30 41 1 22 38
M  V30 END BOND
M  V30 END CTAB
M  END
>  <Dataset>  (419) 
ChEMBL_Kinases

>  <Ligand_Instance>  (419) 
nan

>  <PDB_ID>  (419) 
nan

>  <Standardized_SMILES>  (419) 
O=c1oc2ccccc2cc1-c1csc(NN=C2CCCC2)n1

>  <Name>  (419) 
nan

>  <Pocket>  (419) 
nan

>  <ATP_Site>  (419) 
nan

>  <Peripheral>  (419) 
nan

>  <Num_H_Atoms_ProtBoundConf>  (419) 
nan

>  <Num_Resolved_Atoms>  (419) 
nan

>  <Num_Not_Resolved_Atoms>  (419) 
nan

$$$$
CHEMBL1463659
     RDKit          3D

  0  0  0  0  0  0  0  0  0  0999 V3000
M  V30 BEGIN CTAB
M  V30 COUNTS 30 32 0 0 0
M  V30 BEGIN ATOM
M  V30 1 C -1.739538 -1.541057 3.256884 0
M  V30 2 N -0.864009 -1.113087 2.180912 0
M  V30 3 N -0.605267 -1.927053 1.181856 0
M  V30 4 C 0.192464 -1.624124 0.138490 0
M  V30 5 C 0.450697 -2.570763 -0.955848 0
M  V30 6 C -0.167466 -3.808005 -0.873437 0
M  V30 7 C 0.075651 -4.697707 -1.902621 0
M  V30 8 C 0.911353 -4.261034 -2.909184 0
M  V30 9 C 1.533999 -3.034572 -3.006502 0
M  V30 10 N 1.259797 -2.208167 -1.973953 0
M  V30 11 N 0.744387 -0.400564 0.150955 0
M  V30 12 C 0.539459 0.497557 1.125777 0
M  V30 13 C 1.117674 1.747251 1.115549 0
M  V30 14 O 1.865698 2.095708 0.183836 0
M  V30 15 N 0.829316 2.552915 2.155472 0
M  V30 16 C 1.394595 3.885784 2.225959 0
M  V30 17 C 0.029214 2.222637 3.182785 0
M  V30 18 O -0.219656 3.000227 4.139860 0
M  V30 19 N -0.564111 1.002600 3.238407 0
M  V30 20 C -0.328983 0.120930 2.227699 0
M  V30 21 H -2.064428 -0.667767 3.840262 0
M  V30 22 H -2.612925 -2.023592 2.730291 0
M  V30 23 H -1.220642 -2.314225 3.855266 0
M  V30 24 H -0.807764 -4.075010 -0.053292 0
M  V30 25 H -0.356049 -5.687791 -1.936338 0
M  V30 26 H 1.091424 -4.985282 -3.718761 0
M  V30 27 H 2.167551 -2.784348 -3.828120 0
M  V30 28 H 2.122376 3.895468 3.076559 0
M  V30 29 H 0.533827 4.572219 2.452940 0
M  V30 30 H 1.894227 4.113710 1.281204 0
M  V30 END ATOM
M  V30 BEGIN BOND
M  V30 1 1 1 2
M  V30 2 1 2 3
M  V30 3 2 3 4
M  V30 4 1 4 5
M  V30 5 2 5 6
M  V30 6 1 6 7
M  V30 7 2 7 8
M  V30 8 1 8 9
M  V30 9 2 9 10
M  V30 10 1 4 11
M  V30 11 2 11 12
M  V30 12 1 12 13
M  V30 13 2 13 14
M  V30 14 1 13 15
M  V30 15 1 15 16
M  V30 16 1 15 17
M  V30 17 2 17 18
M  V30 18 1 17 19
M  V30 19 2 19 20
M  V30 20 1 20 2
M  V30 21 1 10 5
M  V30 22 1 20 12
M  V30 23 1 1 21
M  V30 24 1 1 22
M  V30 25 1 1 23
M  V30 26 1 6 24
M  V30 27 1 7 25
M  V30 28 1 8 26
M  V30 29 1 9 27
M  V30 30 1 16 28
M  V30 31 1 16 29
M  V30 32 1 16 30
M  V30 END BOND
M  V30 END CTAB
M  END
>  <Dataset>  (420) 
ChEMBL_Kinases

>  <Ligand_Instance>  (420) 
nan

>  <PDB_ID>  (420) 
nan

>  <Standardized_SMILES>  (420) 
Cn1nc(-c2ccccn2)nc2c(=O)n(C)c(=O)nc1-2

>  <Name>  (420) 
nan

>  <Pocket>  (420) 
nan

>  <ATP_Site>  (420) 
nan

>  <Peripheral>  (420) 
nan

>  <Num_H_Atoms_ProtBoundConf>  (420) 
nan

>  <Num_Resolved_Atoms>  (420) 
nan

>  <Num_Not_Resolved_Atoms>  (420) 
nan

$$$$
CHEMBL1463632
     RDKit          3D

  0  0  0  0  0  0  0  0  0  0999 V3000
M  V30 BEGIN CTAB
M  V30 COUNTS 55 58 0 0 0
M  V30 BEGIN ATOM
M  V30 1 O -0.276894 -2.641365 -0.071112 0
M  V30 2 C -1.413367 -2.167602 0.184163 0
M  V30 3 C -2.002966 -1.172258 1.070493 0
M  V30 4 C -1.013670 -0.551299 1.978322 0
M  V30 5 C 0.100763 0.172822 1.329299 0
M  V30 6 C 1.374355 -0.221267 0.984750 0
M  V30 7 C 2.231294 0.660629 0.360469 0
M  V30 8 C 1.888349 1.959908 0.045563 0
M  V30 9 S 3.114698 2.925093 -0.747986 0
M  V30 10 O 3.929286 2.084757 -1.675408 0
M  V30 11 O 2.395004 3.978732 -1.534565 0
M  V30 12 N 4.101245 3.733491 0.416316 0
M  V30 13 C 3.263972 4.622378 1.192996 0
M  V30 14 C 3.091932 4.178381 2.630231 0
M  V30 15 O 4.314051 4.120377 3.297475 0
M  V30 16 C 5.313461 3.584111 2.483926 0
M  V30 17 C 4.724982 2.800824 1.329136 0
M  V30 18 C 0.614431 2.365440 0.386845 0
M  V30 19 C -0.253955 1.492331 1.012179 0
M  V30 20 N -2.425594 -2.794801 -0.644299 0
M  V30 21 C -3.870549 -2.522175 -0.640797 0
M  V30 22 C -4.555046 -3.731808 -0.050324 0
M  V30 23 C -3.874424 -4.999005 -0.389728 0
M  V30 24 C -4.477751 -6.136487 0.115851 0
M  V30 25 C -3.923322 -7.378899 -0.141459 0
M  V30 26 C -2.789110 -7.478664 -0.889106 0
M  V30 27 C -2.185112 -6.335406 -1.395670 0
M  V30 28 C -2.733596 -5.090175 -1.142594 0
M  V30 29 C -2.154836 -3.825721 -1.643582 0
M  V30 30 H -2.768183 -1.665482 1.728652 0
M  V30 31 H -2.552589 -0.376057 0.515677 0
M  V30 32 H -0.613510 -1.350254 2.644175 0
M  V30 33 H -1.583597 0.116170 2.681339 0
M  V30 34 H 1.587383 -1.234635 1.262038 0
M  V30 35 H 3.204033 0.231174 0.140793 0
M  V30 36 H 3.689277 5.658531 1.141731 0
M  V30 37 H 2.249713 4.714643 0.773566 0
M  V30 38 H 2.510241 3.237348 2.683225 0
M  V30 39 H 2.487428 4.964693 3.123570 0
M  V30 40 H 5.928457 4.421845 2.096714 0
M  V30 41 H 6.001412 2.904934 3.033060 0
M  V30 42 H 5.548498 2.230904 0.852362 0
M  V30 43 H 3.934887 2.132159 1.729674 0
M  V30 44 H 0.367277 3.382396 0.131659 0
M  V30 45 H -1.224566 1.953504 1.220287 0
M  V30 46 H -4.051416 -1.631207 0.026140 0
M  V30 47 H -4.183352 -2.316803 -1.670739 0
M  V30 48 H -5.624265 -3.732262 -0.395059 0
M  V30 49 H -4.495779 -3.603530 1.059391 0
M  V30 50 H -5.378538 -6.141200 0.717226 0
M  V30 51 H -4.349726 -8.314671 0.227807 0
M  V30 52 H -2.338427 -8.419920 -1.104482 0
M  V30 53 H -1.277116 -6.326078 -2.002300 0
M  V30 54 H -2.592177 -3.499926 -2.600259 0
M  V30 55 H -1.037913 -3.909553 -1.760383 0
M  V30 END ATOM
M  V30 BEGIN BOND
M  V30 1 2 1 2
M  V30 2 1 2 3
M  V30 3 1 3 4
M  V30 4 1 4 5
M  V30 5 2 5 6
M  V30 6 1 6 7
M  V30 7 2 7 8
M  V30 8 1 8 9
M  V30 9 2 9 10
M  V30 10 2 9 11
M  V30 11 1 9 12
M  V30 12 1 12 13
M  V30 13 1 13 14
M  V30 14 1 14 15
M  V30 15 1 15 16
M  V30 16 1 16 17
M  V30 17 1 8 18
M  V30 18 2 18 19
M  V30 19 1 2 20
M  V30 20 1 20 21
M  V30 21 1 21 22
M  V30 22 1 22 23
M  V30 23 2 23 24
M  V30 24 1 24 25
M  V30 25 2 25 26
M  V30 26 1 26 27
M  V30 27 2 27 28
M  V30 28 1 28 29
M  V30 29 1 19 5
M  V30 30 1 29 20
M  V30 31 1 17 12
M  V30 32 1 28 23
M  V30 33 1 3 30
M  V30 34 1 3 31
M  V30 35 1 4 32
M  V30 36 1 4 33
M  V30 37 1 6 34
M  V30 38 1 7 35
M  V30 39 1 13 36
M  V30 40 1 13 37
M  V30 41 1 14 38
M  V30 42 1 14 39
M  V30 43 1 16 40
M  V30 44 1 16 41
M  V30 45 1 17 42
M  V30 46 1 17 43
M  V30 47 1 18 44
M  V30 48 1 19 45
M  V30 49 1 21 46
M  V30 50 1 21 47
M  V30 51 1 22 48
M  V30 52 1 22 49
M  V30 53 1 24 50
M  V30 54 1 25 51
M  V30 55 1 26 52
M  V30 56 1 27 53
M  V30 57 1 29 54
M  V30 58 1 29 55
M  V30 END BOND
M  V30 END CTAB
M  END
>  <Dataset>  (421) 
ChEMBL_Kinases

>  <Ligand_Instance>  (421) 
nan

>  <PDB_ID>  (421) 
nan

>  <Standardized_SMILES>  (421) 
O=C(CCc1ccc(S(=O)(=O)N2CCOCC2)cc1)N1CCc2ccccc2C1

>  <Name>  (421) 
nan

>  <Pocket>  (421) 
nan

>  <ATP_Site>  (421) 
nan

>  <Peripheral>  (421) 
nan

>  <Num_H_Atoms_ProtBoundConf>  (421) 
nan

>  <Num_Resolved_Atoms>  (421) 
nan

>  <Num_Not_Resolved_Atoms>  (421) 
nan

$$$$
CHEMBL1463381
     RDKit          3D

  0  0  0  0  0  0  0  0  0  0999 V3000
M  V30 BEGIN CTAB
M  V30 COUNTS 45 47 0 0 0
M  V30 BEGIN ATOM
M  V30 1 C 1.086027 -5.148288 2.080724 0
M  V30 2 C 2.078512 -4.240902 1.383983 0
M  V30 3 O 1.346241 -3.251196 0.681795 0
M  V30 4 C 0.457628 -3.611602 -0.294260 0
M  V30 5 O 0.288913 -4.826301 -0.570569 0
M  V30 6 C -0.222389 -2.425012 -0.925111 0
M  V30 7 C 0.901991 -1.621081 -1.503965 0
M  V30 8 O 1.489575 -1.994562 -2.564778 0
M  V30 9 C 1.327510 -0.379181 -0.827077 0
M  V30 10 C 0.449036 0.399348 -0.219719 0
M  V30 11 C 0.819230 1.629049 0.458707 0
M  V30 12 C 2.109418 2.085385 0.528022 0
M  V30 13 C 2.466465 3.253298 1.171034 0
M  V30 14 C 1.506488 4.030992 1.788571 0
M  V30 15 O 1.792654 5.217340 2.453842 0
M  V30 16 C 3.124766 5.706893 2.536489 0
M  V30 17 C 0.192046 3.608952 1.743625 0
M  V30 18 C -0.116479 2.422744 1.081980 0
M  V30 19 C -0.932929 -0.130632 -0.316530 0
M  V30 20 C -0.923447 -1.601201 0.115216 0
M  V30 21 C -2.346978 -2.031457 0.296417 0
M  V30 22 C -2.871915 -2.526418 1.488518 0
M  V30 23 C -4.199174 -2.776973 1.153554 0
M  V30 24 C -4.412041 -2.439759 -0.162962 0
M  V30 25 O -3.265898 -1.997001 -0.631231 0
M  V30 26 H 1.508531 -5.546876 3.024279 0
M  V30 27 H 0.859533 -5.991955 1.397862 0
M  V30 28 H 0.140575 -4.600989 2.236443 0
M  V30 29 H 2.743306 -3.799551 2.143549 0
M  V30 30 H 2.703608 -4.873211 0.714426 0
M  V30 31 H -0.865712 -2.813339 -1.719176 0
M  V30 32 H 2.381318 -0.138003 -0.851037 0
M  V30 33 H 2.923912 1.560119 0.084688 0
M  V30 34 H 3.490417 3.599583 1.216490 0
M  V30 35 H 3.494965 6.049110 1.549832 0
M  V30 36 H 3.769214 4.829225 2.819714 0
M  V30 37 H 3.209107 6.465700 3.336234 0
M  V30 38 H -0.560982 4.216808 2.226729 0
M  V30 39 H -1.164251 2.181996 1.103160 0
M  V30 40 H -1.675018 0.405276 0.281503 0
M  V30 41 H -1.193517 -0.142802 -1.405269 0
M  V30 42 H -0.369429 -1.739660 1.067738 0
M  V30 43 H -2.387202 -2.686113 2.451371 0
M  V30 44 H -4.967145 -3.176284 1.810774 0
M  V30 45 H -5.357646 -2.524475 -0.715440 0
M  V30 END ATOM
M  V30 BEGIN BOND
M  V30 1 1 1 2
M  V30 2 1 2 3
M  V30 3 1 3 4
M  V30 4 2 4 5
M  V30 5 1 4 6
M  V30 6 1 6 7
M  V30 7 2 7 8
M  V30 8 1 7 9
M  V30 9 2 9 10
M  V30 10 1 10 11
M  V30 11 2 11 12
M  V30 12 1 12 13
M  V30 13 2 13 14
M  V30 14 1 14 15
M  V30 15 1 15 16
M  V30 16 1 14 17
M  V30 17 2 17 18
M  V30 18 1 10 19
M  V30 19 1 19 20
M  V30 20 1 20 21
M  V30 21 2 21 22
M  V30 22 1 22 23
M  V30 23 2 23 24
M  V30 24 1 24 25
M  V30 25 1 20 6
M  V30 26 1 25 21
M  V30 27 1 18 11
M  V30 28 1 1 26
M  V30 29 1 1 27
M  V30 30 1 1 28
M  V30 31 1 2 29
M  V30 32 1 2 30
M  V30 33 1 6 31
M  V30 34 1 9 32
M  V30 35 1 12 33
M  V30 36 1 13 34
M  V30 37 1 16 35
M  V30 38 1 16 36
M  V30 39 1 16 37
M  V30 40 1 17 38
M  V30 41 1 18 39
M  V30 42 1 19 40
M  V30 43 1 19 41
M  V30 44 1 20 42
M  V30 45 1 22 43
M  V30 46 1 23 44
M  V30 47 1 24 45
M  V30 END BOND
M  V30 END CTAB
M  END
>  <Dataset>  (422) 
ChEMBL_Kinases

>  <Ligand_Instance>  (422) 
nan

>  <PDB_ID>  (422) 
nan

>  <Standardized_SMILES>  (422) 
CCOC(=O)C1C(=O)C=C(c2ccc(OC)cc2)CC1c1ccco1

>  <Name>  (422) 
nan

>  <Pocket>  (422) 
nan

>  <ATP_Site>  (422) 
nan

>  <Peripheral>  (422) 
nan

>  <Num_H_Atoms_ProtBoundConf>  (422) 
nan

>  <Num_Resolved_Atoms>  (422) 
nan

>  <Num_Not_Resolved_Atoms>  (422) 
nan

$$$$
CHEMBL1463327
     RDKit          3D

  0  0  0  0  0  0  0  0  0  0999 V3000
M  V30 BEGIN CTAB
M  V30 COUNTS 52 54 0 0 0
M  V30 BEGIN ATOM
M  V30 1 C -2.312831 -2.537039 -2.137649 0
M  V30 2 C -1.314116 -2.710958 -1.065242 0
M  V30 3 C -0.739934 -1.690176 -0.332891 0
M  V30 4 C 0.121264 -2.317572 0.542347 0
M  V30 5 C 0.976342 -1.688698 1.540256 0
M  V30 6 O 1.718385 -2.383316 2.278110 0
M  V30 7 O 1.155007 -0.374582 1.870796 0
M  V30 8 C 2.007963 0.125645 2.853233 0
M  V30 9 C 1.914078 1.592376 2.897621 0
M  V30 10 O 2.733353 1.873041 3.829932 0
M  V30 11 C 1.258924 2.738969 2.289773 0
M  V30 12 C 1.626577 3.957514 2.816410 0
M  V30 13 N 2.562121 4.225872 3.876037 0
M  V30 14 N 1.029900 5.057465 2.267262 0
M  V30 15 C 1.364356 6.379233 2.767362 0
M  V30 16 C 0.137404 4.945896 1.271461 0
M  V30 17 O -0.367899 6.002848 0.818822 0
M  V30 18 N -0.246648 3.776670 0.731671 0
M  V30 19 C -1.212790 3.664983 -0.345460 0
M  V30 20 C 0.336917 2.702940 1.268937 0
M  V30 21 O -0.001153 1.606207 0.787029 0
M  V30 22 C 0.106559 -3.687762 0.384460 0
M  V30 23 C 0.799794 -4.810237 1.024750 0
M  V30 24 N -0.798825 -3.876018 -0.623371 0
M  V30 25 C -1.191968 -5.147794 -1.184286 0
M  V30 26 C -2.011173 -5.979879 -0.445092 0
M  V30 27 C -2.383953 -7.209334 -1.001438 0
M  V30 28 C -1.907195 -7.522714 -2.268484 0
M  V30 29 C -1.094456 -6.703913 -3.008689 0
M  V30 30 C -0.737808 -5.496682 -2.444139 0
M  V30 31 H -2.373096 -3.403979 -2.804615 0
M  V30 32 H -3.327814 -2.421101 -1.671854 0
M  V30 33 H -2.164275 -1.598949 -2.709821 0
M  V30 34 H -0.945194 -0.653910 -0.449737 0
M  V30 35 H 1.625427 -0.273884 3.829811 0
M  V30 36 H 3.071653 -0.235870 2.698146 0
M  V30 37 H 3.519664 4.632624 3.881029 0
M  V30 38 H 2.101208 3.920364 4.768911 0
M  V30 39 H 2.194794 6.843897 2.233454 0
M  V30 40 H 0.477091 7.043901 2.833771 0
M  V30 41 H 1.714099 6.266476 3.833609 0
M  V30 42 H -1.477226 2.587646 -0.439844 0
M  V30 43 H -2.140723 4.196633 -0.062423 0
M  V30 44 H -0.801676 3.981976 -1.316041 0
M  V30 45 H 0.092592 -5.690791 1.071490 0
M  V30 46 H 1.724364 -5.121711 0.485992 0
M  V30 47 H 1.000381 -4.595196 2.100759 0
M  V30 48 H -2.382619 -5.733339 0.544672 0
M  V30 49 H -3.024297 -7.878357 -0.443060 0
M  V30 50 H -2.228315 -8.493462 -2.654872 0
M  V30 51 H -0.733989 -6.962208 -3.988441 0
M  V30 52 H -0.085900 -4.820289 -3.016777 0
M  V30 END ATOM
M  V30 BEGIN BOND
M  V30 1 1 1 2
M  V30 2 2 2 3
M  V30 3 1 3 4
M  V30 4 1 4 5
M  V30 5 2 5 6
M  V30 6 1 5 7
M  V30 7 1 7 8
M  V30 8 1 8 9
M  V30 9 2 9 10
M  V30 10 1 9 11
M  V30 11 2 11 12
M  V30 12 1 12 13
M  V30 13 1 12 14
M  V30 14 1 14 15
M  V30 15 1 14 16
M  V30 16 2 16 17
M  V30 17 1 16 18
M  V30 18 1 18 19
M  V30 19 1 18 20
M  V30 20 2 20 21
M  V30 21 2 4 22
M  V30 22 1 22 23
M  V30 23 1 22 24
M  V30 24 1 24 25
M  V30 25 2 25 26
M  V30 26 1 26 27
M  V30 27 2 27 28
M  V30 28 1 28 29
M  V30 29 2 29 30
M  V30 30 1 24 2
M  V30 31 1 30 25
M  V30 32 1 20 11
M  V30 33 1 1 31
M  V30 34 1 1 32
M  V30 35 1 1 33
M  V30 36 1 3 34
M  V30 37 1 8 35
M  V30 38 1 8 36
M  V30 39 1 13 37
M  V30 40 1 13 38
M  V30 41 1 15 39
M  V30 42 1 15 40
M  V30 43 1 15 41
M  V30 44 1 19 42
M  V30 45 1 19 43
M  V30 46 1 19 44
M  V30 47 1 23 45
M  V30 48 1 23 46
M  V30 49 1 23 47
M  V30 50 1 26 48
M  V30 51 1 27 49
M  V30 52 1 28 50
M  V30 53 1 29 51
M  V30 54 1 30 52
M  V30 END BOND
M  V30 END CTAB
M  END
>  <Dataset>  (423) 
ChEMBL_Kinases

>  <Ligand_Instance>  (423) 
nan

>  <PDB_ID>  (423) 
nan

>  <Standardized_SMILES>  (423) 
Cc1cc(C(=O)OCC(=O)c2c(N)n(C)c(=O)n(C)c2=O)c(C)n1-c1ccccc1

>  <Name>  (423) 
nan

>  <Pocket>  (423) 
nan

>  <ATP_Site>  (423) 
nan

>  <Peripheral>  (423) 
nan

>  <Num_H_Atoms_ProtBoundConf>  (423) 
nan

>  <Num_Resolved_Atoms>  (423) 
nan

>  <Num_Not_Resolved_Atoms>  (423) 
nan

$$$$
CHEMBL1455438
     RDKit          3D

  0  0  0  0  0  0  0  0  0  0999 V3000
M  V30 BEGIN CTAB
M  V30 COUNTS 56 60 0 0 0
M  V30 BEGIN ATOM
M  V30 1 C 1.225835 -4.185171 4.651644 0
M  V30 2 O 1.197401 -3.694266 3.322685 0
M  V30 3 C 1.657695 -2.413467 3.064626 0
M  V30 4 C 2.129496 -1.641877 4.081559 0
M  V30 5 C 2.584198 -0.369230 3.808151 0
M  V30 6 C 2.556898 0.112430 2.502027 0
M  V30 7 C 2.080583 -0.654154 1.447248 0
M  V30 8 C 2.092507 -0.053413 0.092836 0
M  V30 9 N 0.817260 0.586792 -0.133059 0
M  V30 10 C 0.551841 1.866119 0.181209 0
M  V30 11 O 1.440018 2.579358 0.706984 0
M  V30 12 C -0.642005 2.526469 -0.014213 0
M  V30 13 C -0.854817 3.920370 0.354302 0
M  V30 14 C -0.480629 4.524244 1.530758 0
M  V30 15 C -0.757700 5.860338 1.725584 0
M  V30 16 F -0.378174 6.445469 2.903153 0
M  V30 17 C -1.410078 6.603731 0.747925 0
M  V30 18 C -1.785599 5.978116 -0.444568 0
M  V30 19 F -2.414913 6.791910 -1.330405 0
M  V30 20 C -1.508498 4.647722 -0.635627 0
M  V30 21 N -1.657363 1.815980 -0.582425 0
M  V30 22 C -1.456905 0.509627 -0.927424 0
M  V30 23 C -2.524740 -0.148966 -1.501274 0
M  V30 24 N -2.316736 -1.433831 -1.841492 0
M  V30 25 C -1.132754 -2.038817 -1.632302 0
M  V30 26 N -0.954552 -3.398937 -2.007346 0
M  V30 27 C 0.265248 -4.165694 -1.846014 0
M  V30 28 C -0.157481 -5.620143 -1.600216 0
M  V30 29 N -1.367387 -5.572259 -0.839141 0
M  V30 30 C -2.521643 -5.192137 -1.618187 0
M  V30 31 C -2.050840 -4.135280 -2.606797 0
M  V30 32 N -0.130986 -1.340108 -1.067887 0
M  V30 33 C -0.223544 -0.058649 -0.689508 0
M  V30 34 C 1.646532 -1.905679 1.794308 0
M  V30 35 H 2.283538 -4.216014 5.037848 0
M  V30 36 H 0.814867 -5.200723 4.678446 0
M  V30 37 H 0.642767 -3.486853 5.283977 0
M  V30 38 H 2.130696 -2.058618 5.077432 0
M  V30 39 H 2.942514 0.183610 4.659158 0
M  V30 40 H 2.945819 1.117549 2.447395 0
M  V30 41 H 2.933857 0.667705 0.001715 0
M  V30 42 H 2.265225 -0.866953 -0.661807 0
M  V30 43 H 0.019681 3.893194 2.243497 0
M  V30 44 H -1.603987 7.637834 0.943497 0
M  V30 45 H -1.847028 4.275895 -1.595237 0
M  V30 46 H -3.471480 0.344439 -1.665740 0
M  V30 47 H 0.825717 -3.798577 -0.969630 0
M  V30 48 H 0.865157 -4.077146 -2.776119 0
M  V30 49 H 0.628237 -6.042894 -0.943478 0
M  V30 50 H -0.219898 -6.159370 -2.548021 0
M  V30 51 H -1.536896 -6.382185 -0.208968 0
M  V30 52 H -3.016599 -6.029690 -2.127993 0
M  V30 53 H -3.253932 -4.697912 -0.951414 0
M  V30 54 H -2.868636 -3.457244 -2.911024 0
M  V30 55 H -1.647558 -4.666937 -3.501416 0
M  V30 56 H 1.273279 -2.531572 1.013607 0
M  V30 END ATOM
M  V30 BEGIN BOND
M  V30 1 1 1 2
M  V30 2 1 2 3
M  V30 3 2 3 4
M  V30 4 1 4 5
M  V30 5 2 5 6
M  V30 6 1 6 7
M  V30 7 1 7 8
M  V30 8 1 8 9
M  V30 9 1 9 10
M  V30 10 2 10 11
M  V30 11 1 10 12
M  V30 12 1 12 13
M  V30 13 2 13 14
M  V30 14 1 14 15
M  V30 15 1 15 16
M  V30 16 2 15 17
M  V30 17 1 17 18
M  V30 18 1 18 19
M  V30 19 2 18 20
M  V30 20 2 12 21
M  V30 21 1 21 22
M  V30 22 2 22 23
M  V30 23 1 23 24
M  V30 24 2 24 25
M  V30 25 1 25 26
M  V30 26 1 26 27
M  V30 27 1 27 28
M  V30 28 1 28 29
M  V30 29 1 29 30
M  V30 30 1 30 31
M  V30 31 1 25 32
M  V30 32 2 32 33
M  V30 33 2 7 34
M  V30 34 1 34 3
M  V30 35 1 33 9
M  V30 36 1 20 13
M  V30 37 1 33 22
M  V30 38 1 31 26
M  V30 39 1 1 35
M  V30 40 1 1 36
M  V30 41 1 1 37
M  V30 42 1 4 38
M  V30 43 1 5 39
M  V30 44 1 6 40
M  V30 45 1 8 41
M  V30 46 1 8 42
M  V30 47 1 14 43
M  V30 48 1 17 44
M  V30 49 1 20 45
M  V30 50 1 23 46
M  V30 51 1 27 47
M  V30 52 1 27 48
M  V30 53 1 28 49
M  V30 54 1 28 50
M  V30 55 1 29 51
M  V30 56 1 30 52
M  V30 57 1 30 53
M  V30 58 1 31 54
M  V30 59 1 31 55
M  V30 60 1 34 56
M  V30 END BOND
M  V30 END CTAB
M  END
>  <Dataset>  (424) 
ChEMBL_Kinases

>  <Ligand_Instance>  (424) 
nan

>  <PDB_ID>  (424) 
nan

>  <Standardized_SMILES>  (424) 
COc1cccc(Cn2c(=O)c(-c3cc(F)cc(F)c3)nc3cnc(N4CCNCC4)nc32)c1

>  <Name>  (424) 
nan

>  <Pocket>  (424) 
nan

>  <ATP_Site>  (424) 
nan

>  <Peripheral>  (424) 
nan

>  <Num_H_Atoms_ProtBoundConf>  (424) 
nan

>  <Num_Resolved_Atoms>  (424) 
nan

>  <Num_Not_Resolved_Atoms>  (424) 
nan

$$$$
CHEMBL1461908
     RDKit          3D

  0  0  0  0  0  0  0  0  0  0999 V3000
M  V30 BEGIN CTAB
M  V30 COUNTS 46 47 0 0 0
M  V30 BEGIN ATOM
M  V30 1 C 0.213784 -1.539428 5.739095 0
M  V30 2 C -0.672696 -1.076107 4.625604 0
M  V30 3 O -0.329806 -1.575669 3.360301 0
M  V30 4 C 0.904898 -1.334504 2.780906 0
M  V30 5 O 1.209015 -0.684983 3.788567 0
M  V30 6 C 1.345409 -1.833408 1.434173 0
M  V30 7 N 2.673836 -1.409774 1.139578 0
M  V30 8 C 3.012597 -0.054080 1.289439 0
M  V30 9 C 2.269569 0.916771 0.490398 0
M  V30 10 C 2.691854 1.255963 -0.796311 0
M  V30 11 C 2.112778 2.160013 -1.661623 0
M  V30 12 C 0.988737 2.797039 -1.194290 0
M  V30 13 F 0.379500 3.695296 -2.003185 0
M  V30 14 C 0.494233 2.532252 0.058227 0
M  V30 15 C 1.118620 1.616315 0.878294 0
M  V30 16 N 0.453467 -1.420787 0.389151 0
M  V30 17 C -0.933553 -1.633653 0.232211 0
M  V30 18 O -1.540222 -2.295012 1.144000 0
M  V30 19 C -1.734845 -1.159144 -0.889300 0
M  V30 20 C -1.268722 -0.432514 -1.964342 0
M  V30 21 C -2.053130 0.000291 -3.007747 0
M  V30 22 C -3.388493 -0.287466 -3.018765 0
M  V30 23 C -3.906157 -1.011122 -1.968407 0
M  V30 24 C -3.085409 -1.426259 -0.941648 0
M  V30 25 C 1.400915 -3.352941 1.557424 0
M  V30 26 F 1.794914 -3.848908 0.342240 0
M  V30 27 F 2.408283 -3.689927 2.457065 0
M  V30 28 F 0.238115 -3.892044 2.026781 0
M  V30 29 H 0.847057 -0.705794 6.100189 0
M  V30 30 H 0.827558 -2.433506 5.484145 0
M  V30 31 H -0.457558 -1.841387 6.595076 0
M  V30 32 H -0.690709 0.040414 4.629507 0
M  V30 33 H -1.750581 -1.362061 4.792056 0
M  V30 34 H 3.134651 -1.898407 0.371588 0
M  V30 35 H 4.092408 0.041185 0.946410 0
M  V30 36 H 3.058971 0.287577 2.354496 0
M  V30 37 H 3.593356 0.732323 -1.146683 0
M  V30 38 H 2.563176 2.311813 -2.630693 0
M  V30 39 H -0.396163 3.026488 0.448343 0
M  V30 40 H 0.741442 1.399627 1.865574 0
M  V30 41 H 0.825297 -0.885945 -0.424609 0
M  V30 42 H -0.217946 -0.183542 -1.994387 0
M  V30 43 H -1.594993 0.570573 -3.816428 0
M  V30 44 H -3.953932 0.077730 -3.862582 0
M  V30 45 H -4.969878 -1.243604 -1.971573 0
M  V30 46 H -3.561352 -1.996164 -0.140360 0
M  V30 END ATOM
M  V30 BEGIN BOND
M  V30 1 1 1 2
M  V30 2 1 2 3
M  V30 3 1 3 4
M  V30 4 2 4 5
M  V30 5 1 4 6
M  V30 6 1 6 7
M  V30 7 1 7 8
M  V30 8 1 8 9
M  V30 9 2 9 10
M  V30 10 1 10 11
M  V30 11 2 11 12
M  V30 12 1 12 13
M  V30 13 1 12 14
M  V30 14 2 14 15
M  V30 15 1 6 16
M  V30 16 1 16 17
M  V30 17 2 17 18
M  V30 18 1 17 19
M  V30 19 2 19 20
M  V30 20 1 20 21
M  V30 21 2 21 22
M  V30 22 1 22 23
M  V30 23 2 23 24
M  V30 24 1 6 25
M  V30 25 1 25 26
M  V30 26 1 25 27
M  V30 27 1 25 28
M  V30 28 1 15 9
M  V30 29 1 24 19
M  V30 30 1 1 29
M  V30 31 1 1 30
M  V30 32 1 1 31
M  V30 33 1 2 32
M  V30 34 1 2 33
M  V30 35 1 7 34
M  V30 36 1 8 35
M  V30 37 1 8 36
M  V30 38 1 10 37
M  V30 39 1 11 38
M  V30 40 1 14 39
M  V30 41 1 15 40
M  V30 42 1 16 41
M  V30 43 1 20 42
M  V30 44 1 21 43
M  V30 45 1 22 44
M  V30 46 1 23 45
M  V30 47 1 24 46
M  V30 END BOND
M  V30 END CTAB
M  END
>  <Dataset>  (425) 
ChEMBL_Kinases

>  <Ligand_Instance>  (425) 
nan

>  <PDB_ID>  (425) 
nan

>  <Standardized_SMILES>  (425) 
CCOC(=O)C(NCc1ccc(F)cc1)(NC(=O)c1ccccc1)C(F)(F)F

>  <Name>  (425) 
nan

>  <Pocket>  (425) 
nan

>  <ATP_Site>  (425) 
nan

>  <Peripheral>  (425) 
nan

>  <Num_H_Atoms_ProtBoundConf>  (425) 
nan

>  <Num_Resolved_Atoms>  (425) 
nan

>  <Num_Not_Resolved_Atoms>  (425) 
nan

$$$$
CHEMBL1461987
     RDKit          3D

  0  0  0  0  0  0  0  0  0  0999 V3000
M  V30 BEGIN CTAB
M  V30 COUNTS 35 36 0 0 0
M  V30 BEGIN ATOM
M  V30 1 C -1.185143 -5.026289 4.473752 0
M  V30 2 O -1.082386 -5.170133 3.065090 0
M  V30 3 C -0.352002 -4.227694 2.353444 0
M  V30 4 C -0.265470 -4.386590 0.988484 0
M  V30 5 C 0.433519 -3.511341 0.181111 0
M  V30 6 C 1.052424 -2.450402 0.819854 0
M  V30 7 C 1.828608 -1.443276 0.089920 0
M  V30 8 C 0.990474 -0.300878 -0.348754 0
M  V30 9 O -0.205477 -0.459225 0.009276 0
M  V30 10 N 1.605416 0.759007 -1.071188 0
M  V30 11 C 0.679651 1.801783 -1.435206 0
M  V30 12 C 0.516714 2.841090 -0.531230 0
M  V30 13 C -0.362810 3.820740 -0.889578 0
M  V30 14 C -0.523013 4.933884 0.102478 0
M  V30 15 C -1.062515 3.782440 -2.099596 0
M  V30 16 C -0.862526 2.723833 -2.963624 0
M  V30 17 N 0.012466 1.741852 -2.615467 0
M  V30 18 C 0.979511 -2.273680 2.172753 0
M  V30 19 C 0.270199 -3.164885 2.977718 0
M  V30 20 H -0.195235 -4.911470 4.958228 0
M  V30 21 H -1.715833 -5.867731 4.934825 0
M  V30 22 H -1.745189 -4.099693 4.742995 0
M  V30 23 H -0.741420 -5.212566 0.449469 0
M  V30 24 H 0.532301 -3.590836 -0.894756 0
M  V30 25 H 2.731266 -1.100813 0.651383 0
M  V30 26 H 2.233475 -1.916575 -0.828808 0
M  V30 27 H 2.627971 0.693417 -1.266733 0
M  V30 28 H 1.069371 2.844555 0.394200 0
M  V30 29 H -1.236189 4.525611 0.877730 0
M  V30 30 H 0.416318 5.198012 0.590905 0
M  V30 31 H -1.038843 5.787276 -0.386661 0
M  V30 32 H -1.747108 4.607906 -2.307329 0
M  V30 33 H -1.408852 2.692298 -3.910248 0
M  V30 34 H 1.444060 -1.467479 2.698908 0
M  V30 35 H 0.200427 -3.043605 4.045944 0
M  V30 END ATOM
M  V30 BEGIN BOND
M  V30 1 1 1 2
M  V30 2 1 2 3
M  V30 3 2 3 4
M  V30 4 1 4 5
M  V30 5 2 5 6
M  V30 6 1 6 7
M  V30 7 1 7 8
M  V30 8 2 8 9
M  V30 9 1 8 10
M  V30 10 1 10 11
M  V30 11 2 11 12
M  V30 12 1 12 13
M  V30 13 1 13 14
M  V30 14 2 13 15
M  V30 15 1 15 16
M  V30 16 2 16 17
M  V30 17 1 6 18
M  V30 18 2 18 19
M  V30 19 1 19 3
M  V30 20 1 17 11
M  V30 21 1 1 20
M  V30 22 1 1 21
M  V30 23 1 1 22
M  V30 24 1 4 23
M  V30 25 1 5 24
M  V30 26 1 7 25
M  V30 27 1 7 26
M  V30 28 1 10 27
M  V30 29 1 12 28
M  V30 30 1 14 29
M  V30 31 1 14 30
M  V30 32 1 14 31
M  V30 33 1 15 32
M  V30 34 1 16 33
M  V30 35 1 18 34
M  V30 36 1 19 35
M  V30 END BOND
M  V30 END CTAB
M  END
>  <Dataset>  (426) 
ChEMBL_Kinases

>  <Ligand_Instance>  (426) 
nan

>  <PDB_ID>  (426) 
nan

>  <Standardized_SMILES>  (426) 
COc1ccc(CC(=O)Nc2cc(C)ccn2)cc1

>  <Name>  (426) 
nan

>  <Pocket>  (426) 
nan

>  <ATP_Site>  (426) 
nan

>  <Peripheral>  (426) 
nan

>  <Num_H_Atoms_ProtBoundConf>  (426) 
nan

>  <Num_Resolved_Atoms>  (426) 
nan

>  <Num_Not_Resolved_Atoms>  (426) 
nan

$$$$
CHEMBL1462110
     RDKit          3D

  0  0  0  0  0  0  0  0  0  0999 V3000
M  V30 BEGIN CTAB
M  V30 COUNTS 40 42 0 0 0
M  V30 BEGIN ATOM
M  V30 1 C 0.656409 -3.369154 0.579872 0
M  V30 2 O 0.763663 -2.369085 -0.398347 0
M  V30 3 C 1.142955 -2.601543 -1.689398 0
M  V30 4 O 1.368740 -3.841265 -1.824250 0
M  V30 5 C 1.283306 -1.635897 -2.772284 0
M  V30 6 C 1.684821 -2.135820 -3.993981 0
M  V30 7 C 1.809751 -1.194406 -5.005709 0
M  V30 8 C 1.556145 0.153258 -4.828191 0
M  V30 9 C 1.153042 0.600352 -3.570095 0
M  V30 10 C 1.015532 -0.303738 -2.532555 0
M  V30 11 N 0.601623 0.196289 -1.264143 0
M  V30 12 C 1.556709 0.640382 -0.282235 0
M  V30 13 O 2.704487 0.486235 -0.784320 0
M  V30 14 C 0.968155 1.123488 0.963236 0
M  V30 15 C 0.256804 0.060508 1.775326 0
M  V30 16 C 0.207710 0.794919 3.085776 0
M  V30 17 C -0.755638 0.615818 4.169944 0
M  V30 18 C -0.633681 1.381188 5.286435 0
M  V30 19 C -1.539125 1.220546 6.318283 0
M  V30 20 C -2.559684 0.274370 6.189761 0
M  V30 21 F -3.509620 0.032793 7.149007 0
M  V30 22 C -2.676136 -0.506556 5.039090 0
M  V30 23 C -1.750569 -0.327421 4.009498 0
M  V30 24 N 1.197032 1.654370 3.112655 0
M  V30 25 O 1.911036 1.557674 1.921528 0
M  V30 26 H -0.395446 -3.486040 0.941565 0
M  V30 27 H 0.956559 -4.367837 0.219593 0
M  V30 28 H 1.336364 -3.132125 1.441514 0
M  V30 29 H 1.886317 -3.189510 -4.144828 0
M  V30 30 H 2.127061 -1.526640 -6.007440 0
M  V30 31 H 1.669388 0.845049 -5.652296 0
M  V30 32 H 0.955556 1.655019 -3.434880 0
M  V30 33 H -0.445159 0.170185 -1.213575 0
M  V30 34 H 0.259513 1.964216 0.816212 0
M  V30 35 H -0.734637 -0.173027 1.394997 0
M  V30 36 H 0.924636 -0.817495 1.930186 0
M  V30 37 H 0.123932 2.127936 5.456728 0
M  V30 38 H -1.589008 1.735510 7.259370 0
M  V30 39 H -3.466621 -1.242543 4.934296 0
M  V30 40 H -1.818444 -0.918449 3.109481 0
M  V30 END ATOM
M  V30 BEGIN BOND
M  V30 1 1 1 2
M  V30 2 1 2 3
M  V30 3 2 3 4
M  V30 4 1 3 5
M  V30 5 2 5 6
M  V30 6 1 6 7
M  V30 7 2 7 8
M  V30 8 1 8 9
M  V30 9 2 9 10
M  V30 10 1 10 11
M  V30 11 1 11 12
M  V30 12 2 12 13
M  V30 13 1 12 14
M  V30 14 1 14 15
M  V30 15 1 15 16
M  V30 16 1 16 17
M  V30 17 2 17 18
M  V30 18 1 18 19
M  V30 19 2 19 20
M  V30 20 1 20 21
M  V30 21 1 20 22
M  V30 22 2 22 23
M  V30 23 2 16 24
M  V30 24 1 24 25
M  V30 25 1 10 5
M  V30 26 1 25 14
M  V30 27 1 23 17
M  V30 28 1 1 26
M  V30 29 1 1 27
M  V30 30 1 1 28
M  V30 31 1 6 29
M  V30 32 1 7 30
M  V30 33 1 8 31
M  V30 34 1 9 32
M  V30 35 1 11 33
M  V30 36 1 14 34
M  V30 37 1 15 35
M  V30 38 1 15 36
M  V30 39 1 18 37
M  V30 40 1 19 38
M  V30 41 1 22 39
M  V30 42 1 23 40
M  V30 END BOND
M  V30 END CTAB
M  END
>  <Dataset>  (427) 
ChEMBL_Kinases

>  <Ligand_Instance>  (427) 
nan

>  <PDB_ID>  (427) 
nan

>  <Standardized_SMILES>  (427) 
COC(=O)c1ccccc1NC(=O)C1CC(c2ccc(F)cc2)=NO1

>  <Name>  (427) 
nan

>  <Pocket>  (427) 
nan

>  <ATP_Site>  (427) 
nan

>  <Peripheral>  (427) 
nan

>  <Num_H_Atoms_ProtBoundConf>  (427) 
nan

>  <Num_Resolved_Atoms>  (427) 
nan

>  <Num_Not_Resolved_Atoms>  (427) 
nan

$$$$
CHEMBL1462247
     RDKit          3D

  0  0  0  0  0  0  0  0  0  0999 V3000
M  V30 BEGIN CTAB
M  V30 COUNTS 57 62 0 0 0
M  V30 BEGIN ATOM
M  V30 1 O 2.654648 -1.849501 1.670968 0
M  V30 2 C 1.571183 -1.534288 1.115197 0
M  V30 3 N 1.103547 -0.207621 0.999228 0
M  V30 4 C 1.605036 1.058602 1.402981 0
M  V30 5 C 2.402143 1.832434 0.592888 0
M  V30 6 C 2.860910 3.054103 1.048044 0
M  V30 7 C 2.572674 3.568908 2.284164 0
M  V30 8 N 3.047342 4.825609 2.733464 0
M  V30 9 C 3.820554 5.738432 1.923990 0
M  V30 10 C 5.207453 5.786812 2.571250 0
M  V30 11 O 5.024466 6.419715 3.798712 0
M  V30 12 C 4.163415 5.777157 4.651355 0
M  V30 13 C 2.842723 5.378764 4.033454 0
M  V30 14 C 1.775333 2.756667 3.048981 0
M  V30 15 C 1.275474 1.531285 2.678815 0
M  V30 16 C 0.758846 -2.610793 0.562263 0
M  V30 17 C 1.227778 -3.897853 0.723415 0
M  V30 18 C 0.495332 -4.977134 0.213259 0
M  V30 19 C -0.695929 -4.781252 -0.453464 0
M  V30 20 N -1.446816 -5.775003 -0.968012 0
M  V30 21 C -2.608104 -5.538632 -1.615119 0
M  V30 22 C -3.424304 -6.611932 -2.171148 0
M  V30 23 C -4.687753 -6.720097 -1.607231 0
M  V30 24 C -5.355424 -7.778141 -2.227156 0
M  V30 25 C -4.433771 -8.247466 -3.141382 0
M  V30 26 O -3.320074 -7.562353 -3.097613 0
M  V30 27 C -3.076721 -4.247719 -1.776144 0
M  V30 28 C -4.308223 -3.865375 -2.454987 0
M  V30 29 C -4.529724 -4.098700 -3.807410 0
M  V30 30 C -5.800354 -3.601127 -4.087800 0
M  V30 31 C -6.288494 -3.091508 -2.898270 0
M  V30 32 O -5.374824 -3.272698 -1.977573 0
M  V30 33 N -2.335388 -3.221185 -1.264156 0
M  V30 34 C -1.170829 -3.492597 -0.617809 0
M  V30 35 C -0.433946 -2.445859 -0.107752 0
M  V30 36 H 0.218093 0.110194 0.551779 0
M  V30 37 H 2.645532 1.444557 -0.394546 0
M  V30 38 H 3.475352 3.573674 0.334796 0
M  V30 39 H 3.858151 5.475724 0.864154 0
M  V30 40 H 3.423531 6.794956 2.004461 0
M  V30 41 H 5.526086 4.729016 2.699287 0
M  V30 42 H 5.922822 6.384582 1.994337 0
M  V30 43 H 4.644350 4.944208 5.214412 0
M  V30 44 H 3.903580 6.532446 5.448735 0
M  V30 45 H 2.253854 6.332125 3.891151 0
M  V30 46 H 2.335078 4.711669 4.760748 0
M  V30 47 H 1.468147 3.037020 4.047070 0
M  V30 48 H 0.654639 0.909842 3.284823 0
M  V30 49 H 2.150533 -4.141714 1.231771 0
M  V30 50 H 0.863529 -6.001454 0.338790 0
M  V30 51 H -5.239555 -6.178556 -0.821516 0
M  V30 52 H -6.348497 -8.186262 -2.079666 0
M  V30 53 H -4.493383 -9.061401 -3.856817 0
M  V30 54 H -3.923679 -4.557887 -4.581303 0
M  V30 55 H -6.330023 -3.599866 -5.044471 0
M  V30 56 H -7.253879 -2.621367 -2.736067 0
M  V30 57 H -0.810427 -1.444911 -0.240243 0
M  V30 END ATOM
M  V30 BEGIN BOND
M  V30 1 2 1 2
M  V30 2 1 2 3
M  V30 3 1 3 4
M  V30 4 2 4 5
M  V30 5 1 5 6
M  V30 6 2 6 7
M  V30 7 1 7 8
M  V30 8 1 8 9
M  V30 9 1 9 10
M  V30 10 1 10 11
M  V30 11 1 11 12
M  V30 12 1 12 13
M  V30 13 1 7 14
M  V30 14 2 14 15
M  V30 15 1 2 16
M  V30 16 2 16 17
M  V30 17 1 17 18
M  V30 18 2 18 19
M  V30 19 1 19 20
M  V30 20 2 20 21
M  V30 21 1 21 22
M  V30 22 2 22 23
M  V30 23 1 23 24
M  V30 24 2 24 25
M  V30 25 1 25 26
M  V30 26 1 21 27
M  V30 27 1 27 28
M  V30 28 2 28 29
M  V30 29 1 29 30
M  V30 30 2 30 31
M  V30 31 1 31 32
M  V30 32 2 27 33
M  V30 33 1 33 34
M  V30 34 2 34 35
M  V30 35 1 15 4
M  V30 36 1 35 16
M  V30 37 1 13 8
M  V30 38 1 34 19
M  V30 39 1 26 22
M  V30 40 1 32 28
M  V30 41 1 3 36
M  V30 42 1 5 37
M  V30 43 1 6 38
M  V30 44 1 9 39
M  V30 45 1 9 40
M  V30 46 1 10 41
M  V30 47 1 10 42
M  V30 48 1 12 43
M  V30 49 1 12 44
M  V30 50 1 13 45
M  V30 51 1 13 46
M  V30 52 1 14 47
M  V30 53 1 15 48
M  V30 54 1 17 49
M  V30 55 1 18 50
M  V30 56 1 23 51
M  V30 57 1 24 52
M  V30 58 1 25 53
M  V30 59 1 29 54
M  V30 60 1 30 55
M  V30 61 1 31 56
M  V30 62 1 35 57
M  V30 END BOND
M  V30 END CTAB
M  END
>  <Dataset>  (428) 
ChEMBL_Kinases

>  <Ligand_Instance>  (428) 
nan

>  <PDB_ID>  (428) 
nan

>  <Standardized_SMILES>  (428) 
O=C(Nc1ccc(N2CCOCC2)cc1)c1ccc2nc(-c3ccco3)c(-c3ccco3)nc2c1

>  <Name>  (428) 
nan

>  <Pocket>  (428) 
nan

>  <ATP_Site>  (428) 
nan

>  <Peripheral>  (428) 
nan

>  <Num_H_Atoms_ProtBoundConf>  (428) 
nan

>  <Num_Resolved_Atoms>  (428) 
nan

>  <Num_Not_Resolved_Atoms>  (428) 
nan

$$$$
CHEMBL1462310
     RDKit          3D

  0  0  0  0  0  0  0  0  0  0999 V3000
M  V30 BEGIN CTAB
M  V30 COUNTS 34 36 0 0 0
M  V30 BEGIN ATOM
M  V30 1 C 0.159319 -3.760368 5.046320 0
M  V30 2 C 0.275551 -3.032636 3.761896 0
M  V30 3 C 0.808379 -3.562985 2.607414 0
M  V30 4 C 0.727230 -2.565577 1.661039 0
M  V30 5 C 1.161867 -2.631191 0.269972 0
M  V30 6 N 1.729956 -3.725974 -0.313056 0
M  V30 7 N 1.991961 -3.407266 -1.590201 0
M  V30 8 C 1.581293 -2.119947 -1.775813 0
M  V30 9 S 1.713529 -1.224435 -3.319789 0
M  V30 10 N 1.060377 -1.625487 -0.617592 0
M  V30 11 C 0.542104 -0.318710 -0.462707 0
M  V30 12 C 1.244488 0.645137 0.236297 0
M  V30 13 C 0.724636 1.919183 0.379448 0
M  V30 14 C -0.510190 2.233390 -0.181862 0
M  V30 15 C -1.053975 3.607409 -0.018394 0
M  V30 16 C -1.192582 1.256451 -0.874440 0
M  V30 17 C -2.501216 1.624295 -1.457711 0
M  V30 18 C -0.693908 -0.031485 -1.033624 0
M  V30 19 N 0.157402 -1.496708 2.281486 0
M  V30 20 O -0.104520 -1.780795 3.515955 0
M  V30 21 H 1.177751 -3.923705 5.475526 0
M  V30 22 H -0.340024 -4.756892 4.866384 0
M  V30 23 H -0.507909 -3.239642 5.761689 0
M  V30 24 H 1.208692 -4.555280 2.467098 0
M  V30 25 H 0.486810 -0.561296 -3.598240 0
M  V30 26 H 2.203950 0.441472 0.685883 0
M  V30 27 H 1.304013 2.668023 0.940680 0
M  V30 28 H -0.645293 4.020837 0.940712 0
M  V30 29 H -2.139836 3.583999 0.101291 0
M  V30 30 H -0.722866 4.296067 -0.827009 0
M  V30 31 H -3.304204 1.751070 -0.689676 0
M  V30 32 H -2.829440 0.858191 -2.206973 0
M  V30 33 H -2.435171 2.605745 -1.990668 0
M  V30 34 H -1.279782 -0.734373 -1.583092 0
M  V30 END ATOM
M  V30 BEGIN BOND
M  V30 1 1 1 2
M  V30 2 2 2 3
M  V30 3 1 3 4
M  V30 4 1 4 5
M  V30 5 2 5 6
M  V30 6 1 6 7
M  V30 7 2 7 8
M  V30 8 1 8 9
M  V30 9 1 8 10
M  V30 10 1 10 11
M  V30 11 2 11 12
M  V30 12 1 12 13
M  V30 13 2 13 14
M  V30 14 1 14 15
M  V30 15 1 14 16
M  V30 16 1 16 17
M  V30 17 2 16 18
M  V30 18 2 4 19
M  V30 19 1 19 20
M  V30 20 1 20 2
M  V30 21 1 10 5
M  V30 22 1 18 11
M  V30 23 1 1 21
M  V30 24 1 1 22
M  V30 25 1 1 23
M  V30 26 1 3 24
M  V30 27 1 9 25
M  V30 28 1 12 26
M  V30 29 1 13 27
M  V30 30 1 15 28
M  V30 31 1 15 29
M  V30 32 1 15 30
M  V30 33 1 17 31
M  V30 34 1 17 32
M  V30 35 1 17 33
M  V30 36 1 18 34
M  V30 END BOND
M  V30 END CTAB
M  END
>  <Dataset>  (429) 
ChEMBL_Kinases

>  <Ligand_Instance>  (429) 
nan

>  <PDB_ID>  (429) 
nan

>  <Standardized_SMILES>  (429) 
Cc1cc(-c2nnc(S)n2-c2ccc(C)c(C)c2)no1

>  <Name>  (429) 
nan

>  <Pocket>  (429) 
nan

>  <ATP_Site>  (429) 
nan

>  <Peripheral>  (429) 
nan

>  <Num_H_Atoms_ProtBoundConf>  (429) 
nan

>  <Num_Resolved_Atoms>  (429) 
nan

>  <Num_Not_Resolved_Atoms>  (429) 
nan

$$$$
CHEMBL1462479
     RDKit          3D

  0  0  0  0  0  0  0  0  0  0999 V3000
M  V30 BEGIN CTAB
M  V30 COUNTS 36 39 0 0 0
M  V30 BEGIN ATOM
M  V30 1 O -0.856352 -0.695800 2.110568 0
M  V30 2 C 0.356097 -0.812645 2.421062 0
M  V30 3 C 1.089342 -2.039353 2.706333 0
M  V30 4 C 0.674601 -3.355033 2.712983 0
M  V30 5 C 1.572132 -4.354307 3.020276 0
M  V30 6 C 2.873833 -4.010225 3.315971 0
M  V30 7 C 3.251286 -2.682905 3.299051 0
M  V30 8 C 2.381119 -1.657654 2.996402 0
M  V30 9 C 2.454067 -0.205418 2.893049 0
M  V30 10 O 3.557644 0.355919 3.121329 0
M  V30 11 N 1.169765 0.346393 2.526525 0
M  V30 12 C 1.062400 1.752818 2.368881 0
M  V30 13 C 1.378109 2.319903 1.033170 0
M  V30 14 C 0.546634 1.852730 -0.083189 0
M  V30 15 N -0.475014 1.052679 -0.419715 0
M  V30 16 C -0.759873 1.093060 -1.723523 0
M  V30 17 C -1.835184 0.301189 -2.308376 0
M  V30 18 C -1.539562 -0.216603 -3.556079 0
M  V30 19 C -2.508292 -0.988486 -4.194993 0
M  V30 20 C -3.696712 -1.155707 -3.485628 0
M  V30 21 N -3.963513 -0.641386 -2.269538 0
M  V30 22 C -3.034449 0.099283 -1.656035 0
M  V30 23 N 0.138224 1.963024 -2.193046 0
M  V30 24 O 0.894184 2.402721 -1.244390 0
M  V30 25 H -0.371246 -3.581652 2.471245 0
M  V30 26 H 1.274228 -5.395254 3.033070 0
M  V30 27 H 3.592357 -4.782196 3.559636 0
M  V30 28 H 4.282418 -2.414957 3.533667 0
M  V30 29 H 1.671737 2.300444 3.118834 0
M  V30 30 H -0.008555 2.054427 2.586412 0
M  V30 31 H 1.206068 3.435605 1.127340 0
M  V30 32 H 2.468701 2.229484 0.827247 0
M  V30 33 H -0.597400 -0.054143 -4.061212 0
M  V30 34 H -2.357889 -1.422555 -5.156556 0
M  V30 35 H -4.468487 -1.751086 -3.957152 0
M  V30 36 H -3.208753 0.530812 -0.678635 0
M  V30 END ATOM
M  V30 BEGIN BOND
M  V30 1 2 1 2
M  V30 2 1 2 3
M  V30 3 2 3 4
M  V30 4 1 4 5
M  V30 5 2 5 6
M  V30 6 1 6 7
M  V30 7 2 7 8
M  V30 8 1 8 9
M  V30 9 2 9 10
M  V30 10 1 9 11
M  V30 11 1 11 12
M  V30 12 1 12 13
M  V30 13 1 13 14
M  V30 14 2 14 15
M  V30 15 1 15 16
M  V30 16 1 16 17
M  V30 17 2 17 18
M  V30 18 1 18 19
M  V30 19 2 19 20
M  V30 20 1 20 21
M  V30 21 2 21 22
M  V30 22 2 16 23
M  V30 23 1 23 24
M  V30 24 1 11 2
M  V30 25 1 24 14
M  V30 26 1 8 3
M  V30 27 1 22 17
M  V30 28 1 4 25
M  V30 29 1 5 26
M  V30 30 1 6 27
M  V30 31 1 7 28
M  V30 32 1 12 29
M  V30 33 1 12 30
M  V30 34 1 13 31
M  V30 35 1 13 32
M  V30 36 1 18 33
M  V30 37 1 19 34
M  V30 38 1 20 35
M  V30 39 1 22 36
M  V30 END BOND
M  V30 END CTAB
M  END
>  <Dataset>  (430) 
ChEMBL_Kinases

>  <Ligand_Instance>  (430) 
nan

>  <PDB_ID>  (430) 
nan

>  <Standardized_SMILES>  (430) 
O=C1c2ccccc2C(=O)N1CCc1nc(-c2cccnc2)no1

>  <Name>  (430) 
nan

>  <Pocket>  (430) 
nan

>  <ATP_Site>  (430) 
nan

>  <Peripheral>  (430) 
nan

>  <Num_H_Atoms_ProtBoundConf>  (430) 
nan

>  <Num_Resolved_Atoms>  (430) 
nan

>  <Num_Not_Resolved_Atoms>  (430) 
nan

$$$$
CHEMBL1462482
     RDKit          3D

  0  0  0  0  0  0  0  0  0  0999 V3000
M  V30 BEGIN CTAB
M  V30 COUNTS 52 55 0 0 0
M  V30 BEGIN ATOM
M  V30 1 C -0.476710 -4.371225 2.917544 0
M  V30 2 O 0.521660 -3.451502 3.234756 0
M  V30 3 C 1.567988 -3.145895 2.383534 0
M  V30 4 C 1.757437 -3.709664 1.136019 0
M  V30 5 C 2.810502 -3.391363 0.293177 0
M  V30 6 C 3.717053 -2.459173 0.728492 0
M  V30 7 C 4.808060 -2.162271 -0.186853 0
M  V30 8 O 4.896016 -2.776531 -1.282708 0
M  V30 9 C 5.917159 -1.209049 -0.076226 0
M  V30 10 S 5.558637 0.343315 -0.968138 0
M  V30 11 C 4.169466 1.088928 -0.098071 0
M  V30 12 N 4.024893 1.942768 0.934707 0
M  V30 13 N 2.752778 2.151101 1.164038 0
M  V30 14 C 2.035009 1.418964 0.264012 0
M  V30 15 C 0.549590 1.373283 0.194511 0
M  V30 16 N 0.049891 0.314938 1.050453 0
M  V30 17 C -1.417758 0.166408 1.066782 0
M  V30 18 N -2.381691 0.567335 0.652514 0
M  V30 19 C -3.628858 0.170380 0.897394 0
M  V30 20 C -4.824051 0.759988 0.306690 0
M  V30 21 C -4.801441 1.812854 -0.587988 0
M  V30 22 C -5.951518 2.347510 -1.124202 0
M  V30 23 C -7.214056 1.872805 -0.808916 0
M  V30 24 C -7.223775 0.824875 0.082472 0
M  V30 25 C -6.087012 0.283469 0.623509 0
M  V30 26 C -3.732092 -0.908280 1.809144 0
M  V30 27 S -1.975223 -1.234968 2.219125 0
M  V30 28 N 2.915427 0.764726 -0.514246 0
M  V30 29 C 2.463094 -0.102334 -1.586199 0
M  V30 30 C 3.612096 -1.844338 1.954058 0
M  V30 31 C 2.528477 -2.221539 2.734361 0
M  V30 32 H -0.278427 -5.383160 3.360058 0
M  V30 33 H -1.453856 -4.040124 3.380523 0
M  V30 34 H -0.699915 -4.444546 1.839445 0
M  V30 35 H 1.041883 -4.447626 0.788253 0
M  V30 36 H 2.868746 -3.892963 -0.666510 0
M  V30 37 H 6.039709 -0.999083 1.027234 0
M  V30 38 H 6.891602 -1.570566 -0.432735 0
M  V30 39 H 0.248131 1.114037 -0.839028 0
M  V30 40 H 0.076499 2.348038 0.425097 0
M  V30 41 H 0.716308 -0.249324 1.576520 0
M  V30 42 H -3.817571 2.216021 -0.861319 0
M  V30 43 H -5.810711 3.174111 -1.816992 0
M  V30 44 H -8.041914 2.367562 -1.287695 0
M  V30 45 H -8.210496 0.441854 0.341095 0
M  V30 46 H -6.237581 -0.528776 1.303684 0
M  V30 47 H -4.620666 -1.407120 2.167288 0
M  V30 48 H 3.253667 -0.261966 -2.348566 0
M  V30 49 H 1.609761 0.348415 -2.170090 0
M  V30 50 H 2.069605 -1.050657 -1.206768 0
M  V30 51 H 4.329797 -1.110304 2.290785 0
M  V30 52 H 2.448722 -1.735883 3.699662 0
M  V30 END ATOM
M  V30 BEGIN BOND
M  V30 1 1 1 2
M  V30 2 1 2 3
M  V30 3 2 3 4
M  V30 4 1 4 5
M  V30 5 2 5 6
M  V30 6 1 6 7
M  V30 7 2 7 8
M  V30 8 1 7 9
M  V30 9 1 9 10
M  V30 10 1 10 11
M  V30 11 2 11 12
M  V30 12 1 12 13
M  V30 13 2 13 14
M  V30 14 1 14 15
M  V30 15 1 15 16
M  V30 16 1 16 17
M  V30 17 2 17 18
M  V30 18 1 18 19
M  V30 19 1 19 20
M  V30 20 2 20 21
M  V30 21 1 21 22
M  V30 22 2 22 23
M  V30 23 1 23 24
M  V30 24 2 24 25
M  V30 25 2 19 26
M  V30 26 1 26 27
M  V30 27 1 14 28
M  V30 28 1 28 29
M  V30 29 1 6 30
M  V30 30 2 30 31
M  V30 31 1 31 3
M  V30 32 1 28 11
M  V30 33 1 27 17
M  V30 34 1 25 20
M  V30 35 1 1 32
M  V30 36 1 1 33
M  V30 37 1 1 34
M  V30 38 1 4 35
M  V30 39 1 5 36
M  V30 40 1 9 37
M  V30 41 1 9 38
M  V30 42 1 15 39
M  V30 43 1 15 40
M  V30 44 1 16 41
M  V30 45 1 21 42
M  V30 46 1 22 43
M  V30 47 1 23 44
M  V30 48 1 24 45
M  V30 49 1 25 46
M  V30 50 1 26 47
M  V30 51 1 29 48
M  V30 52 1 29 49
M  V30 53 1 29 50
M  V30 54 1 30 51
M  V30 55 1 31 52
M  V30 END BOND
M  V30 END CTAB
M  END
>  <Dataset>  (431) 
ChEMBL_Kinases

>  <Ligand_Instance>  (431) 
nan

>  <PDB_ID>  (431) 
nan

>  <Standardized_SMILES>  (431) 
COc1ccc(C(=O)CSc2nnc(CNc3nc(-c4ccccc4)cs3)n2C)cc1

>  <Name>  (431) 
nan

>  <Pocket>  (431) 
nan

>  <ATP_Site>  (431) 
nan

>  <Peripheral>  (431) 
nan

>  <Num_H_Atoms_ProtBoundConf>  (431) 
nan

>  <Num_Resolved_Atoms>  (431) 
nan

>  <Num_Not_Resolved_Atoms>  (431) 
nan

$$$$
CHEMBL1463172
     RDKit          3D

  0  0  0  0  0  0  0  0  0  0999 V3000
M  V30 BEGIN CTAB
M  V30 COUNTS 111 117 0 0 0
M  V30 BEGIN ATOM
M  V30 1 C -3.570988 3.328731 0.736526 0
M  V30 2 N -2.403510 2.765384 1.406073 0
M  V30 3 C -1.702440 1.868257 0.543892 0
M  V30 4 C -0.382165 1.361720 1.132900 0
M  V30 5 C 0.239401 0.426622 0.081109 0
M  V30 6 C 1.554496 -0.088186 0.514300 0
M  V30 7 C 2.284690 -0.996552 -0.397173 0 CFG=2
M  V30 8 C 2.579458 -0.405773 -1.750715 0
M  V30 9 N 3.387881 0.795604 -1.498193 0
M  V30 10 C 3.709184 1.472362 -2.731456 0
M  V30 11 C 4.426006 2.738749 -2.580919 0
M  V30 12 C 5.772262 3.050329 -2.543494 0
M  V30 13 C 6.169155 4.364691 -2.386606 0
M  V30 14 C 5.281211 5.405588 -2.262458 0
M  V30 15 C 5.726462 6.787547 -2.097172 0
M  V30 16 C 6.876211 7.349994 -2.618157 0
M  V30 17 C 7.182229 8.675605 -2.386159 0
M  V30 18 C 6.356549 9.510464 -1.621858 0
M  V30 19 C 5.209706 8.940479 -1.105426 0
M  V30 20 C 4.888574 7.605931 -1.330888 0
M  V30 21 C 3.925091 5.120806 -2.296792 0
M  V30 22 C 3.528146 3.810950 -2.453423 0
M  V30 23 N 1.709715 -2.303806 -0.405575 0
M  V30 24 C 0.408505 -2.710431 -0.875550 0
M  V30 25 C 0.442692 -4.064857 -1.544959 0 CFG=2
M  V30 26 C -0.793305 -4.332045 -2.317212 0
M  V30 27 C -1.855590 -3.458397 -2.214950 0
M  V30 28 C -3.063992 -3.586438 -2.899331 0
M  V30 29 C -3.206442 -4.683559 -3.752504 0
M  V30 30 C -2.147545 -5.555895 -3.856458 0
M  V30 31 C -0.950690 -5.405840 -3.162064 0
M  V30 32 N 0.823990 -5.147157 -0.664987 0
M  V30 33 C 0.232168 -6.421370 -0.329287 0
M  V30 34 C -0.647393 -6.226843 0.891409 0
M  V30 35 C 0.083245 -5.764290 2.081437 0
M  V30 36 C 0.594356 -6.812445 2.856820 0
M  V30 37 C 1.320149 -6.619567 4.034930 0
M  V30 38 C 1.571527 -5.339269 4.496774 0
M  V30 39 Cl 2.459965 -4.943280 5.945675 0
M  V30 40 C 1.059345 -4.330910 3.717578 0
M  V30 41 Cl 1.312328 -2.652854 4.196868 0
M  V30 42 C 0.343946 -4.484699 2.559788 0
M  V30 43 C 2.076505 -4.863877 0.005463 0
M  V30 44 O 2.848537 -5.721503 0.503409 0
M  V30 45 C 2.459939 -3.435678 0.101514 0
M  V30 46 O 3.555363 -3.189535 0.688832 0
M  V30 47 C -2.819010 2.175206 2.670295 0
M  V30 48 C -3.897317 1.168203 2.454243 0
M  V30 49 C -3.779620 -0.177713 2.209289 0
M  V30 50 C -4.922368 -0.944447 2.024596 0
M  V30 51 C -6.207232 -0.402238 2.077199 0
M  V30 52 C -7.391574 -1.229762 1.875416 0
M  V30 53 C -8.483275 -0.589415 1.285943 0
M  V30 54 C -9.680026 -1.252270 1.032139 0
M  V30 55 C -9.786608 -2.586516 1.376173 0
M  V30 56 C -8.715894 -3.232444 1.959269 0
M  V30 57 C -7.515182 -2.557272 2.211186 0
M  V30 58 C -6.338416 0.959269 2.324936 0
M  V30 59 C -5.184528 1.686473 2.502882 0
M  V30 60 H -4.249277 2.521724 0.404128 0
M  V30 61 H -4.025127 4.127298 1.320185 0
M  V30 62 H -3.165768 3.816682 -0.189273 0
M  V30 63 H -2.367050 0.988141 0.315650 0
M  V30 64 H -1.557631 2.358055 -0.437864 0
M  V30 65 H 0.277146 2.183385 1.405946 0
M  V30 66 H -0.635640 0.697769 1.973555 0
M  V30 67 H -0.545876 -0.303929 -0.128102 0
M  V30 68 H 0.340451 1.067792 -0.837472 0
M  V30 69 H 1.408121 -0.638764 1.484911 0
M  V30 70 H 2.210873 0.769361 0.773183 0
M  V30 71 H 3.318381 -1.113372 0.059738 0
M  V30 72 H 1.701985 -0.081728 -2.309705 0
M  V30 73 H 3.248578 -1.111727 -2.284133 0
M  V30 74 H 4.168024 0.615993 -0.866722 0
M  V30 75 H 4.411330 0.786756 -3.297468 0
M  V30 76 H 2.829314 1.557253 -3.373460 0
M  V30 77 H 6.376816 2.183566 -2.646745 0
M  V30 78 H 7.254904 4.534046 -2.365154 0
M  V30 79 H 7.496817 6.689199 -3.202485 0
M  V30 80 H 8.086771 9.091217 -2.804980 0
M  V30 81 H 6.640536 10.549440 -1.465675 0
M  V30 82 H 4.589518 9.601024 -0.521216 0
M  V30 83 H 3.954189 7.315819 -0.854511 0
M  V30 84 H 3.245778 5.955970 -2.197409 0
M  V30 85 H 2.428897 3.730177 -2.461977 0
M  V30 86 H -0.395171 -2.676001 -0.147443 0
M  V30 87 H 0.145289 -1.980161 -1.688765 0
M  V30 88 H 1.255999 -4.035102 -2.346693 0
M  V30 89 H -1.824261 -2.585151 -1.578439 0
M  V30 90 H -3.871089 -2.874591 -2.786231 0
M  V30 91 H -4.141936 -4.780709 -4.280452 0
M  V30 92 H -2.247611 -6.406825 -4.515066 0
M  V30 93 H -0.159884 -6.127106 -3.306293 0
M  V30 94 H 1.059535 -7.158725 -0.107090 0
M  V30 95 H -0.362556 -6.889315 -1.111958 0
M  V30 96 H -1.215523 -7.153828 1.125423 0
M  V30 97 H -1.389640 -5.437004 0.623370 0
M  V30 98 H 0.467600 -7.867922 2.606325 0
M  V30 99 H 1.706558 -7.440527 4.620852 0
M  V30 100 H -0.072286 -3.721454 1.930834 0
M  V30 101 H -3.170318 2.985504 3.322637 0
M  V30 102 H -1.970621 1.680232 3.146834 0
M  V30 103 H -2.769944 -0.538865 2.179498 0
M  V30 104 H -4.799570 -1.990950 1.834416 0
M  V30 105 H -8.493154 0.452754 0.981833 0
M  V30 106 H -10.527487 -0.749772 0.572258 0
M  V30 107 H -10.733898 -3.105393 1.173960 0
M  V30 108 H -8.802225 -4.289359 2.232059 0
M  V30 109 H -6.660926 -3.033375 2.666832 0
M  V30 110 H -7.325133 1.374376 2.366588 0
M  V30 111 H -5.398940 2.749342 2.695168 0
M  V30 END ATOM
M  V30 BEGIN BOND
M  V30 1 1 1 2
M  V30 2 1 2 3
M  V30 3 1 3 4
M  V30 4 1 4 5
M  V30 5 1 5 6
M  V30 6 1 6 7
M  V30 7 1 7 8
M  V30 8 1 8 9
M  V30 9 1 9 10
M  V30 10 1 10 11
M  V30 11 2 11 12
M  V30 12 1 12 13
M  V30 13 2 13 14
M  V30 14 1 14 15
M  V30 15 2 15 16
M  V30 16 1 16 17
M  V30 17 2 17 18
M  V30 18 1 18 19
M  V30 19 2 19 20
M  V30 20 1 14 21
M  V30 21 2 21 22
M  V30 22 1 7 23
M  V30 23 1 23 24
M  V30 24 1 24 25
M  V30 25 1 25 26
M  V30 26 2 26 27
M  V30 27 1 27 28
M  V30 28 2 28 29
M  V30 29 1 29 30
M  V30 30 2 30 31
M  V30 31 1 25 32
M  V30 32 1 32 33
M  V30 33 1 33 34
M  V30 34 1 34 35
M  V30 35 2 35 36
M  V30 36 1 36 37
M  V30 37 2 37 38
M  V30 38 1 38 39
M  V30 39 1 38 40
M  V30 40 1 40 41
M  V30 41 2 40 42
M  V30 42 1 32 43
M  V30 43 2 43 44
M  V30 44 1 43 45
M  V30 45 2 45 46
M  V30 46 1 2 47
M  V30 47 1 47 48
M  V30 48 2 48 49
M  V30 49 1 49 50
M  V30 50 2 50 51
M  V30 51 1 51 52
M  V30 52 2 52 53
M  V30 53 1 53 54
M  V30 54 2 54 55
M  V30 55 1 55 56
M  V30 56 2 56 57
M  V30 57 1 51 58
M  V30 58 2 58 59
M  V30 59 1 22 11
M  V30 60 1 45 23
M  V30 61 1 59 48
M  V30 62 1 20 15
M  V30 63 1 31 26
M  V30 64 1 42 35
M  V30 65 1 57 52
M  V30 66 1 1 60
M  V30 67 1 1 61
M  V30 68 1 1 62
M  V30 69 1 3 63
M  V30 70 1 3 64
M  V30 71 1 4 65
M  V30 72 1 4 66
M  V30 73 1 5 67
M  V30 74 1 5 68
M  V30 75 1 6 69
M  V30 76 1 6 70
M  V30 77 1 7 71 CFG=1
M  V30 78 1 8 72
M  V30 79 1 8 73
M  V30 80 1 9 74
M  V30 81 1 10 75
M  V30 82 1 10 76
M  V30 83 1 12 77
M  V30 84 1 13 78
M  V30 85 1 16 79
M  V30 86 1 17 80
M  V30 87 1 18 81
M  V30 88 1 19 82
M  V30 89 1 20 83
M  V30 90 1 21 84
M  V30 91 1 22 85
M  V30 92 1 24 86
M  V30 93 1 24 87
M  V30 94 1 25 88 CFG=3
M  V30 95 1 27 89
M  V30 96 1 28 90
M  V30 97 1 29 91
M  V30 98 1 30 92
M  V30 99 1 31 93
M  V30 100 1 33 94
M  V30 101 1 33 95
M  V30 102 1 34 96
M  V30 103 1 34 97
M  V30 104 1 36 98
M  V30 105 1 37 99
M  V30 106 1 42 100
M  V30 107 1 47 101
M  V30 108 1 47 102
M  V30 109 1 49 103
M  V30 110 1 50 104
M  V30 111 1 53 105
M  V30 112 1 54 106
M  V30 113 1 55 107
M  V30 114 1 56 108
M  V30 115 1 57 109
M  V30 116 1 58 110
M  V30 117 1 59 111
M  V30 END BOND
M  V30 END CTAB
M  END
>  <Dataset>  (432) 
ChEMBL_Kinases

>  <Ligand_Instance>  (432) 
nan

>  <PDB_ID>  (432) 
nan

>  <Standardized_SMILES>  (432) 
CN(CCCC[C@H](CNCc1ccc(-c2ccccc2)cc1)N1C[C@H](c2ccccc2)N(CCc2ccc(Cl)c(Cl)c2)C(=O)C1=O)Cc1ccc(-c2ccccc2)cc1

>  <Name>  (432) 
nan

>  <Pocket>  (432) 
nan

>  <ATP_Site>  (432) 
nan

>  <Peripheral>  (432) 
nan

>  <Num_H_Atoms_ProtBoundConf>  (432) 
nan

>  <Num_Resolved_Atoms>  (432) 
nan

>  <Num_Not_Resolved_Atoms>  (432) 
nan

$$$$
CHEMBL1462623
     RDKit          3D

  0  0  0  0  0  0  0  0  0  0999 V3000
M  V30 BEGIN CTAB
M  V30 COUNTS 40 42 0 0 0
M  V30 BEGIN ATOM
M  V30 1 O -1.595970 -1.211001 1.376911 0
M  V30 2 C -1.323258 -1.465392 0.176061 0
M  V30 3 C -1.005945 -2.818763 -0.341666 0
M  V30 4 C 0.341695 -3.250004 0.124206 0
M  V30 5 C 0.728289 -3.921290 1.256818 0
M  V30 6 C 2.071725 -4.189677 1.458376 0
M  V30 7 C 3.040733 -3.807506 0.561120 0
M  V30 8 F 4.328555 -4.095373 0.811571 0
M  V30 9 C 2.682404 -3.134863 -0.580780 0
M  V30 10 C 1.345461 -2.870104 -0.775473 0
M  V30 11 N -1.314234 -0.387032 -0.737899 0
M  V30 12 C -1.497734 1.007910 -0.917250 0
M  V30 13 C -2.628677 1.679543 -1.326967 0
M  V30 14 C -2.546785 3.053695 -1.416080 0
M  V30 15 C -1.380365 3.715083 -1.107745 0
M  V30 16 C -0.244774 3.060591 -0.696987 0
M  V30 17 C -0.290343 1.661964 -0.592814 0
M  V30 18 S 1.209814 0.815823 -0.035358 0
M  V30 19 C 1.140782 0.723243 1.746890 0
M  V30 20 C 2.181699 0.067870 2.387346 0
M  V30 21 C 2.228767 -0.050212 3.757630 0
M  V30 22 C 1.229411 0.485337 4.555783 0
M  V30 23 C 0.175092 1.148249 3.935313 0
M  V30 24 C 0.152038 1.253717 2.548070 0
M  V30 25 H -1.766391 -3.570437 0.015412 0
M  V30 26 H -1.066159 -2.836139 -1.424096 0
M  V30 27 H -0.120190 -4.173523 1.892758 0
M  V30 28 H 2.296827 -4.725979 2.376997 0
M  V30 29 H 3.454299 -2.844281 -1.267650 0
M  V30 30 H 1.158587 -2.327183 -1.714288 0
M  V30 31 H -1.091706 -0.602825 -1.742206 0
M  V30 32 H -3.460760 1.018306 -1.529640 0
M  V30 33 H -3.479476 3.513362 -1.743194 0
M  V30 34 H -1.385263 4.787321 -1.203067 0
M  V30 35 H 0.640002 3.633115 -0.473786 0
M  V30 36 H 3.036066 -0.403877 1.896724 0
M  V30 37 H 3.017010 -0.552681 4.316440 0
M  V30 38 H 1.238611 0.407822 5.640629 0
M  V30 39 H -0.650274 1.596761 4.508937 0
M  V30 40 H -0.646086 1.759984 1.988780 0
M  V30 END ATOM
M  V30 BEGIN BOND
M  V30 1 2 1 2
M  V30 2 1 2 3
M  V30 3 1 3 4
M  V30 4 2 4 5
M  V30 5 1 5 6
M  V30 6 2 6 7
M  V30 7 1 7 8
M  V30 8 1 7 9
M  V30 9 2 9 10
M  V30 10 1 2 11
M  V30 11 1 11 12
M  V30 12 2 12 13
M  V30 13 1 13 14
M  V30 14 2 14 15
M  V30 15 1 15 16
M  V30 16 2 16 17
M  V30 17 1 17 18
M  V30 18 1 18 19
M  V30 19 2 19 20
M  V30 20 1 20 21
M  V30 21 2 21 22
M  V30 22 1 22 23
M  V30 23 2 23 24
M  V30 24 1 10 4
M  V30 25 1 17 12
M  V30 26 1 24 19
M  V30 27 1 3 25
M  V30 28 1 3 26
M  V30 29 1 5 27
M  V30 30 1 6 28
M  V30 31 1 9 29
M  V30 32 1 10 30
M  V30 33 1 11 31
M  V30 34 1 13 32
M  V30 35 1 14 33
M  V30 36 1 15 34
M  V30 37 1 16 35
M  V30 38 1 20 36
M  V30 39 1 21 37
M  V30 40 1 22 38
M  V30 41 1 23 39
M  V30 42 1 24 40
M  V30 END BOND
M  V30 END CTAB
M  END
>  <Dataset>  (433) 
ChEMBL_Kinases

>  <Ligand_Instance>  (433) 
nan

>  <PDB_ID>  (433) 
nan

>  <Standardized_SMILES>  (433) 
O=C(Cc1ccc(F)cc1)Nc1ccccc1Sc1ccccc1

>  <Name>  (433) 
nan

>  <Pocket>  (433) 
nan

>  <ATP_Site>  (433) 
nan

>  <Peripheral>  (433) 
nan

>  <Num_H_Atoms_ProtBoundConf>  (433) 
nan

>  <Num_Resolved_Atoms>  (433) 
nan

>  <Num_Not_Resolved_Atoms>  (433) 
nan

$$$$
CHEMBL1462635
     RDKit          3D

  0  0  0  0  0  0  0  0  0  0999 V3000
M  V30 BEGIN CTAB
M  V30 COUNTS 15 16 0 0 0
M  V30 BEGIN ATOM
M  V30 1 O -1.276267 -0.057877 1.572998 0
M  V30 2 C 0.023246 -0.237226 1.149737 0
M  V30 3 N 0.192117 -1.311391 0.383676 0
M  V30 4 C 1.332577 -1.715006 -0.154383 0
M  V30 5 S 1.591464 -3.145018 -1.182138 0
M  V30 6 N 2.388319 -0.934915 0.128187 0
M  V30 7 C 2.250004 0.159968 0.901170 0
M  V30 8 S 3.448022 1.304403 1.397249 0
M  V30 9 C 2.316669 2.357164 2.372453 0
M  V30 10 C 1.002681 1.691372 2.227196 0
M  V30 11 C 1.082891 0.587822 1.461826 0
M  V30 12 H -1.412918 0.011371 2.590507 0
M  V30 13 H 0.942793 -2.903082 -2.426500 0
M  V30 14 H 2.275424 3.381141 3.074940 0
M  V30 15 H 0.133737 2.110110 2.712403 0
M  V30 END ATOM
M  V30 BEGIN BOND
M  V30 1 1 1 2
M  V30 2 2 2 3
M  V30 3 1 3 4
M  V30 4 1 4 5
M  V30 5 2 4 6
M  V30 6 1 6 7
M  V30 7 1 7 8
M  V30 8 1 8 9
M  V30 9 2 9 10
M  V30 10 1 10 11
M  V30 11 1 11 2
M  V30 12 2 11 7
M  V30 13 1 1 12
M  V30 14 1 5 13
M  V30 15 1 9 14
M  V30 16 1 10 15
M  V30 END BOND
M  V30 END CTAB
M  END
>  <Dataset>  (434) 
ChEMBL_Kinases

>  <Ligand_Instance>  (434) 
nan

>  <PDB_ID>  (434) 
nan

>  <Standardized_SMILES>  (434) 
Oc1nc(S)nc2sccc12

>  <Name>  (434) 
nan

>  <Pocket>  (434) 
nan

>  <ATP_Site>  (434) 
nan

>  <Peripheral>  (434) 
nan

>  <Num_H_Atoms_ProtBoundConf>  (434) 
nan

>  <Num_Resolved_Atoms>  (434) 
nan

>  <Num_Not_Resolved_Atoms>  (434) 
nan

$$$$
CHEMBL1462702
     RDKit          3D

  0  0  0  0  0  0  0  0  0  0999 V3000
M  V30 BEGIN CTAB
M  V30 COUNTS 45 47 0 0 0
M  V30 BEGIN ATOM
M  V30 1 C 0.087648 -5.040304 2.035559 0
M  V30 2 C 1.016101 -4.495935 1.010150 0
M  V30 3 C 2.243079 -5.085633 0.803380 0
M  V30 4 C 3.103821 -4.571073 -0.155921 0
M  V30 5 C 2.737331 -3.472179 -0.903594 0
M  V30 6 C 1.499167 -2.866024 -0.704657 0
M  V30 7 N 1.070434 -1.733568 -1.445052 0
M  V30 8 C 1.311240 -0.407661 -1.044493 0
M  V30 9 O 1.935668 -0.162290 0.019078 0
M  V30 10 C 0.832680 0.727865 -1.869935 0
M  V30 11 S 1.283002 2.270135 -1.113479 0
M  V30 12 O 0.832660 3.430679 -1.936793 0
M  V30 13 O 2.775850 2.315175 -0.909609 0
M  V30 14 C 0.536515 2.321853 0.467527 0
M  V30 15 C 1.179193 2.403072 1.709143 0
M  V30 16 N 0.298121 2.416148 2.724796 0
M  V30 17 C 0.632664 2.493272 4.134900 0
M  V30 18 C -0.941123 2.345471 2.204780 0
M  V30 19 C -2.213886 2.324501 2.765727 0
M  V30 20 C -3.358799 2.246440 1.965646 0
M  V30 21 C -3.202162 2.189914 0.592586 0
M  V30 22 C -1.931407 2.212000 0.059180 0
M  V30 23 C -0.793239 2.288446 0.834241 0
M  V30 24 C 0.654152 -3.391724 0.255133 0
M  V30 25 C -0.673187 -2.755824 0.480585 0
M  V30 26 H -0.964993 -4.893772 1.707751 0
M  V30 27 H 0.262893 -6.113335 2.204679 0
M  V30 28 H 0.217103 -4.479240 2.968575 0
M  V30 29 H 2.537423 -5.960213 1.396859 0
M  V30 30 H 4.061103 -5.070339 -0.282875 0
M  V30 31 H 3.410969 -3.076229 -1.648439 0
M  V30 32 H 0.556518 -1.994394 -2.319922 0
M  V30 33 H 1.200433 0.657204 -2.914699 0
M  V30 34 H -0.257064 0.670918 -1.908520 0
M  V30 35 H 2.269758 2.449008 1.808904 0
M  V30 36 H -0.273265 2.210852 4.731610 0
M  V30 37 H 1.388467 1.696406 4.396597 0
M  V30 38 H 1.071428 3.453077 4.435565 0
M  V30 39 H -2.248840 2.371545 3.830613 0
M  V30 40 H -4.295683 2.237164 2.515342 0
M  V30 41 H -4.118023 2.130160 0.009643 0
M  V30 42 H -1.869787 2.168768 -1.004371 0
M  V30 43 H -0.809454 -2.756725 1.600855 0
M  V30 44 H -1.502551 -3.356321 0.076050 0
M  V30 45 H -0.723127 -1.720295 0.137054 0
M  V30 END ATOM
M  V30 BEGIN BOND
M  V30 1 1 1 2
M  V30 2 2 2 3
M  V30 3 1 3 4
M  V30 4 2 4 5
M  V30 5 1 5 6
M  V30 6 1 6 7
M  V30 7 1 7 8
M  V30 8 2 8 9
M  V30 9 1 8 10
M  V30 10 1 10 11
M  V30 11 2 11 12
M  V30 12 2 11 13
M  V30 13 1 11 14
M  V30 14 2 14 15
M  V30 15 1 15 16
M  V30 16 1 16 17
M  V30 17 1 16 18
M  V30 18 2 18 19
M  V30 19 1 19 20
M  V30 20 2 20 21
M  V30 21 1 21 22
M  V30 22 2 22 23
M  V30 23 2 6 24
M  V30 24 1 24 25
M  V30 25 1 24 2
M  V30 26 1 23 14
M  V30 27 1 23 18
M  V30 28 1 1 26
M  V30 29 1 1 27
M  V30 30 1 1 28
M  V30 31 1 3 29
M  V30 32 1 4 30
M  V30 33 1 5 31
M  V30 34 1 7 32
M  V30 35 1 10 33
M  V30 36 1 10 34
M  V30 37 1 15 35
M  V30 38 1 17 36
M  V30 39 1 17 37
M  V30 40 1 17 38
M  V30 41 1 19 39
M  V30 42 1 20 40
M  V30 43 1 21 41
M  V30 44 1 22 42
M  V30 45 1 25 43
M  V30 46 1 25 44
M  V30 47 1 25 45
M  V30 END BOND
M  V30 END CTAB
M  END
>  <Dataset>  (435) 
ChEMBL_Kinases

>  <Ligand_Instance>  (435) 
nan

>  <PDB_ID>  (435) 
nan

>  <Standardized_SMILES>  (435) 
Cc1cccc(NC(=O)CS(=O)(=O)c2cn(C)c3ccccc23)c1C

>  <Name>  (435) 
nan

>  <Pocket>  (435) 
nan

>  <ATP_Site>  (435) 
nan

>  <Peripheral>  (435) 
nan

>  <Num_H_Atoms_ProtBoundConf>  (435) 
nan

>  <Num_Resolved_Atoms>  (435) 
nan

>  <Num_Not_Resolved_Atoms>  (435) 
nan

$$$$
CHEMBL1462869
     RDKit          3D

  0  0  0  0  0  0  0  0  0  0999 V3000
M  V30 BEGIN CTAB
M  V30 COUNTS 41 41 0 0 0
M  V30 BEGIN ATOM
M  V30 1 C -2.215208 -3.198056 0.896093 0
M  V30 2 O -1.751114 -2.489209 2.053130 0
M  V30 3 C -0.465558 -1.964353 1.990587 0
M  V30 4 C 0.329199 -2.122834 0.855009 0
M  V30 5 C 1.594470 -1.573067 0.868865 0
M  V30 6 C 2.455663 -1.732144 -0.332496 0
M  V30 7 N 2.214203 -0.604738 -1.216726 0
M  V30 8 C 0.927190 -0.341758 -1.751981 0
M  V30 9 C -0.048630 -1.221462 -2.474231 0
M  V30 10 C 0.488140 0.895482 -1.598080 0
M  V30 11 C 1.313572 1.880651 -0.916434 0
M  V30 12 N 1.966727 2.674933 -0.352446 0
M  V30 13 C -0.798645 1.403700 -2.061631 0
M  V30 14 N -1.302089 2.724832 -1.913721 0
M  V30 15 O -1.713265 0.830352 -2.665357 0
M  V30 16 C 2.080481 -0.884569 1.958332 0
M  V30 17 C 1.316768 -0.712325 3.094889 0
M  V30 18 O 1.685384 -0.043070 4.255179 0
M  V30 19 C 2.979261 0.529864 4.293805 0
M  V30 20 C 0.035768 -1.265906 3.087687 0
M  V30 21 O -0.793233 -1.134947 4.194151 0
M  V30 22 C -1.683931 -0.074970 4.382375 0
M  V30 23 H -2.201270 -2.548768 0.017460 0
M  V30 24 H -1.513617 -4.057827 0.688894 0
M  V30 25 H -3.207762 -3.656464 1.089781 0
M  V30 26 H -0.099350 -2.666143 0.039297 0
M  V30 27 H 2.250912 -2.699440 -0.827680 0
M  V30 28 H 3.487447 -1.739002 0.009472 0
M  V30 29 H 2.999577 0.050982 -1.483409 0
M  V30 30 H -0.960062 -1.232349 -1.866375 0
M  V30 31 H 0.377979 -2.243270 -2.630086 0
M  V30 32 H -0.288154 -0.837685 -3.471884 0
M  V30 33 H -1.569579 3.409959 -1.193182 0
M  V30 34 H -1.560844 3.425013 -2.658357 0
M  V30 35 H 3.070855 -0.445764 1.988354 0
M  V30 36 H 3.169140 1.088846 3.351501 0
M  V30 37 H 3.700904 -0.335409 4.274306 0
M  V30 38 H 3.132820 1.158260 5.191992 0
M  V30 39 H -2.271908 -0.315407 5.304145 0
M  V30 40 H -2.374311 0.074294 3.521108 0
M  V30 41 H -1.205093 0.897718 4.562748 0
M  V30 END ATOM
M  V30 BEGIN BOND
M  V30 1 1 1 2
M  V30 2 1 2 3
M  V30 3 2 3 4
M  V30 4 1 4 5
M  V30 5 1 5 6
M  V30 6 1 6 7
M  V30 7 1 7 8
M  V30 8 1 8 9
M  V30 9 2 8 10
M  V30 10 1 10 11
M  V30 11 3 11 12
M  V30 12 1 10 13
M  V30 13 1 13 14
M  V30 14 2 13 15
M  V30 15 2 5 16
M  V30 16 1 16 17
M  V30 17 1 17 18
M  V30 18 1 18 19
M  V30 19 2 17 20
M  V30 20 1 20 21
M  V30 21 1 21 22
M  V30 22 1 20 3
M  V30 23 1 1 23
M  V30 24 1 1 24
M  V30 25 1 1 25
M  V30 26 1 4 26
M  V30 27 1 6 27
M  V30 28 1 6 28
M  V30 29 1 7 29
M  V30 30 1 9 30
M  V30 31 1 9 31
M  V30 32 1 9 32
M  V30 33 1 14 33
M  V30 34 1 14 34
M  V30 35 1 16 35
M  V30 36 1 19 36
M  V30 37 1 19 37
M  V30 38 1 19 38
M  V30 39 1 22 39
M  V30 40 1 22 40
M  V30 41 1 22 41
M  V30 END BOND
M  V30 END CTAB
M  END
>  <Dataset>  (436) 
ChEMBL_Kinases

>  <Ligand_Instance>  (436) 
nan

>  <PDB_ID>  (436) 
nan

>  <Standardized_SMILES>  (436) 
COc1cc(CN/C(C)=C(\C#N)C(N)=O)cc(OC)c1OC

>  <Name>  (436) 
nan

>  <Pocket>  (436) 
nan

>  <ATP_Site>  (436) 
nan

>  <Peripheral>  (436) 
nan

>  <Num_H_Atoms_ProtBoundConf>  (436) 
nan

>  <Num_Resolved_Atoms>  (436) 
nan

>  <Num_Not_Resolved_Atoms>  (436) 
nan

$$$$
CHEMBL1462934
     RDKit          3D

  0  0  0  0  0  0  0  0  0  0999 V3000
M  V30 BEGIN CTAB
M  V30 COUNTS 37 39 0 0 0
M  V30 BEGIN ATOM
M  V30 1 O -0.390404 -3.647791 3.361959 0
M  V30 2 C -0.045780 -3.800914 2.158502 0
M  V30 3 C 1.062732 -4.753357 2.017553 0
M  V30 4 S 2.649337 -4.103262 2.526696 0
M  V30 5 C 3.182946 -2.750813 1.485571 0
M  V30 6 N 3.870928 -2.494355 0.349508 0
M  V30 7 N 3.885637 -1.195124 0.149863 0
M  V30 8 C 3.200870 -0.597373 1.163103 0
M  V30 9 C 2.928120 0.868355 1.397926 0
M  V30 10 N 1.682568 1.187662 0.766749 0
M  V30 11 C 1.233009 2.552563 0.875601 0
M  V30 12 O 2.107787 3.179718 1.545305 0
M  V30 13 C -0.031463 2.806152 0.219589 0
M  V30 14 C -0.652932 3.977073 0.178436 0
M  V30 15 C -1.815439 4.264473 -0.410368 0
M  V30 16 C -2.360331 3.142857 -1.023605 0
M  V30 17 S -1.149429 1.752702 -0.705179 0
M  V30 18 O 2.806117 -1.585390 1.929574 0
M  V30 19 C -0.716359 -3.082442 1.080029 0
M  V30 20 C -1.719038 -2.194097 1.364692 0
M  V30 21 C -2.328800 -1.565949 0.303150 0
M  V30 22 C -1.990447 -1.776392 -1.019498 0
M  V30 23 Cl -2.778900 -0.971827 -2.367753 0
M  V30 24 C -0.973086 -2.678624 -1.264155 0
M  V30 25 C -0.332793 -3.334222 -0.224607 0
M  V30 26 H 1.153884 -5.159282 0.969248 0
M  V30 27 H 0.853934 -5.668674 2.628112 0
M  V30 28 H 3.742033 1.486273 0.972725 0
M  V30 29 H 2.938469 0.990925 2.497863 0
M  V30 30 H 1.122412 0.445621 0.244626 0
M  V30 31 H -0.304803 4.911605 0.631477 0
M  V30 32 H -2.578040 4.961395 -0.662513 0
M  V30 33 H -3.215720 2.556453 -1.670474 0
M  V30 34 H -2.037740 -1.976921 2.386218 0
M  V30 35 H -3.137608 -0.836327 0.423291 0
M  V30 36 H -0.706726 -2.849806 -2.308840 0
M  V30 37 H 0.442704 -4.017307 -0.527401 0
M  V30 END ATOM
M  V30 BEGIN BOND
M  V30 1 2 1 2
M  V30 2 1 2 3
M  V30 3 1 3 4
M  V30 4 1 4 5
M  V30 5 2 5 6
M  V30 6 1 6 7
M  V30 7 2 7 8
M  V30 8 1 8 9
M  V30 9 1 9 10
M  V30 10 1 10 11
M  V30 11 2 11 12
M  V30 12 1 11 13
M  V30 13 2 13 14
M  V30 14 1 14 15
M  V30 15 2 15 16
M  V30 16 1 16 17
M  V30 17 1 8 18
M  V30 18 1 2 19
M  V30 19 2 19 20
M  V30 20 1 20 21
M  V30 21 2 21 22
M  V30 22 1 22 23
M  V30 23 1 22 24
M  V30 24 2 24 25
M  V30 25 1 18 5
M  V30 26 1 25 19
M  V30 27 1 17 13
M  V30 28 1 3 26
M  V30 29 1 3 27
M  V30 30 1 9 28
M  V30 31 1 9 29
M  V30 32 1 10 30
M  V30 33 1 14 31
M  V30 34 1 15 32
M  V30 35 1 16 33
M  V30 36 1 20 34
M  V30 37 1 21 35
M  V30 38 1 24 36
M  V30 39 1 25 37
M  V30 END BOND
M  V30 END CTAB
M  END
>  <Dataset>  (437) 
ChEMBL_Kinases

>  <Ligand_Instance>  (437) 
nan

>  <PDB_ID>  (437) 
nan

>  <Standardized_SMILES>  (437) 
O=C(CSc1nnc(CNC(=O)c2cccs2)o1)c1ccc(Cl)cc1

>  <Name>  (437) 
nan

>  <Pocket>  (437) 
nan

>  <ATP_Site>  (437) 
nan

>  <Peripheral>  (437) 
nan

>  <Num_H_Atoms_ProtBoundConf>  (437) 
nan

>  <Num_Resolved_Atoms>  (437) 
nan

>  <Num_Not_Resolved_Atoms>  (437) 
nan

$$$$
CHEMBL1463057
     RDKit          3D

  0  0  0  0  0  0  0  0  0  0999 V3000
M  V30 BEGIN CTAB
M  V30 COUNTS 44 47 0 0 0
M  V30 BEGIN ATOM
M  V30 1 C -4.349384 -4.465159 0.669547 0
M  V30 2 C -3.197056 -4.944946 -0.196158 0
M  V30 3 O -2.009335 -4.230216 0.017596 0
M  V30 4 C -1.775312 -2.903151 -0.166912 0
M  V30 5 C -0.440060 -2.600946 0.181460 0
M  V30 6 C 0.021239 -1.287943 0.070571 0
M  V30 7 C -0.771763 -0.268560 -0.365189 0
M  V30 8 C -0.438745 1.130683 -0.529945 0
M  V30 9 N -1.020716 2.252172 -0.897848 0
M  V30 10 C -0.128693 3.251582 -0.834835 0
M  V30 11 C -0.313598 4.656639 -1.146290 0
M  V30 12 N -0.441831 5.773362 -1.401351 0
M  V30 13 C 1.063098 2.704581 -0.405215 0
M  V30 14 N 2.342989 3.326975 -0.164968 0
M  V30 15 C 2.822233 3.324647 1.227248 0
M  V30 16 C 2.912595 1.930353 1.744760 0
M  V30 17 C 1.740381 1.506230 2.383884 0
M  V30 18 C 1.734650 0.221300 2.882197 0
M  V30 19 C 2.785299 -0.643367 2.790110 0
M  V30 20 C 3.936662 -0.203008 2.152667 0
M  V30 21 C 3.991100 1.080596 1.635853 0
M  V30 22 O 4.840573 -1.250247 2.188436 0
M  V30 23 C 4.170537 -2.427169 2.611986 0
M  V30 24 O 2.983322 -1.949735 3.215159 0
M  V30 25 O 0.823132 1.429384 -0.236768 0
M  V30 26 C -2.075987 -0.564275 -0.706435 0
M  V30 27 C -2.550483 -1.858152 -0.604053 0
M  V30 28 H -4.451762 -5.132918 1.578854 0
M  V30 29 H -5.272743 -4.602361 0.088609 0
M  V30 30 H -4.188551 -3.419620 1.036734 0
M  V30 31 H -3.473487 -4.985097 -1.271545 0
M  V30 32 H -2.976579 -5.993916 0.125584 0
M  V30 33 H 0.314250 -3.287753 0.539525 0
M  V30 34 H 1.036584 -1.009425 0.328758 0
M  V30 35 H 2.929266 3.771527 -0.935620 0
M  V30 36 H 3.849075 3.747122 1.260898 0
M  V30 37 H 2.136976 3.952729 1.815082 0
M  V30 38 H 0.850330 2.128916 2.506340 0
M  V30 39 H 0.850809 -0.149125 3.387601 0
M  V30 40 H 4.858329 1.474098 1.127536 0
M  V30 41 H 3.899258 -3.079233 1.753997 0
M  V30 42 H 4.777813 -3.024163 3.348843 0
M  V30 43 H -2.847147 0.116718 -1.071419 0
M  V30 44 H -3.549382 -2.169947 -0.857700 0
M  V30 END ATOM
M  V30 BEGIN BOND
M  V30 1 1 1 2
M  V30 2 1 2 3
M  V30 3 1 3 4
M  V30 4 2 4 5
M  V30 5 1 5 6
M  V30 6 2 6 7
M  V30 7 1 7 8
M  V30 8 2 8 9
M  V30 9 1 9 10
M  V30 10 1 10 11
M  V30 11 3 11 12
M  V30 12 2 10 13
M  V30 13 1 13 14
M  V30 14 1 14 15
M  V30 15 1 15 16
M  V30 16 2 16 17
M  V30 17 1 17 18
M  V30 18 2 18 19
M  V30 19 1 19 20
M  V30 20 2 20 21
M  V30 21 1 20 22
M  V30 22 1 22 23
M  V30 23 1 23 24
M  V30 24 1 13 25
M  V30 25 1 7 26
M  V30 26 2 26 27
M  V30 27 1 27 4
M  V30 28 1 25 8
M  V30 29 1 21 16
M  V30 30 1 24 19
M  V30 31 1 1 28
M  V30 32 1 1 29
M  V30 33 1 1 30
M  V30 34 1 2 31
M  V30 35 1 2 32
M  V30 36 1 5 33
M  V30 37 1 6 34
M  V30 38 1 14 35
M  V30 39 1 15 36
M  V30 40 1 15 37
M  V30 41 1 17 38
M  V30 42 1 18 39
M  V30 43 1 21 40
M  V30 44 1 23 41
M  V30 45 1 23 42
M  V30 46 1 26 43
M  V30 47 1 27 44
M  V30 END BOND
M  V30 END CTAB
M  END
>  <Dataset>  (438) 
ChEMBL_Kinases

>  <Ligand_Instance>  (438) 
nan

>  <PDB_ID>  (438) 
nan

>  <Standardized_SMILES>  (438) 
CCOc1ccc(-c2nc(C#N)c(NCc3ccc4c(c3)OCO4)o2)cc1

>  <Name>  (438) 
nan

>  <Pocket>  (438) 
nan

>  <ATP_Site>  (438) 
nan

>  <Peripheral>  (438) 
nan

>  <Num_H_Atoms_ProtBoundConf>  (438) 
nan

>  <Num_Resolved_Atoms>  (438) 
nan

>  <Num_Not_Resolved_Atoms>  (438) 
nan

$$$$
CHEMBL1463060
     RDKit          3D

  0  0  0  0  0  0  0  0  0  0999 V3000
M  V30 BEGIN CTAB
M  V30 COUNTS 46 48 0 0 0
M  V30 BEGIN ATOM
M  V30 1 C -3.572614 -5.339729 -1.164054 0
M  V30 2 O -3.332261 -3.946193 -1.212554 0
M  V30 3 C -2.096799 -3.449053 -1.669830 0
M  V30 4 C -1.148034 -4.372215 -2.061716 0
M  V30 5 C 0.072566 -3.914454 -2.514528 0
M  V30 6 C 0.250379 -2.548167 -2.539931 0
M  V30 7 C -0.705584 -1.636598 -2.145652 0
M  V30 8 C -0.378958 -0.220526 -2.226426 0
M  V30 9 N 0.747958 0.245734 -2.643094 0
M  V30 10 O 0.767453 1.613400 -2.607851 0
M  V30 11 C -0.140492 1.973927 -1.593691 0
M  V30 12 C 0.429430 1.562832 -0.263223 0
M  V30 13 O 1.569443 0.993561 -0.294878 0
M  V30 14 N -0.273880 1.802764 0.940465 0
M  V30 15 C 0.479419 1.319231 2.062307 0
M  V30 16 C 0.283807 0.018935 2.475955 0
M  V30 17 C 1.054286 -0.376386 3.574282 0
M  V30 18 C 1.957748 0.460132 4.219413 0
M  V30 19 O 2.666483 -0.058640 5.306426 0
M  V30 20 C 2.409616 -1.401191 5.669206 0
M  V30 21 C 2.129398 1.756106 3.779823 0
M  V30 22 O 3.041953 2.493372 4.484677 0
M  V30 23 C 3.349079 3.838316 4.179661 0
M  V30 24 C 1.374186 2.157236 2.696517 0
M  V30 25 C -1.243332 0.940997 -1.859401 0
M  V30 26 C -1.922295 -2.081807 -1.693937 0
M  V30 27 H -2.747520 -5.810028 -0.565150 0
M  V30 28 H -3.562207 -5.760785 -2.207588 0
M  V30 29 H -4.533138 -5.505119 -0.650219 0
M  V30 30 H -1.342019 -5.440943 -2.020835 0
M  V30 31 H 0.838068 -4.592646 -2.828634 0
M  V30 32 H 1.236163 -2.225119 -2.907089 0
M  V30 33 H -0.497285 2.998969 -1.618404 0
M  V30 34 H -1.218445 2.283028 0.875176 0
M  V30 35 H -0.401469 -0.629121 1.993328 0
M  V30 36 H 0.886916 -1.416108 3.892203 0
M  V30 37 H 3.026995 -1.736502 6.504011 0
M  V30 38 H 1.335290 -1.483183 5.961244 0
M  V30 39 H 2.585154 -2.090152 4.802023 0
M  V30 40 H 3.179980 4.109396 3.123317 0
M  V30 41 H 2.730272 4.546715 4.790234 0
M  V30 42 H 4.431784 4.065305 4.400641 0
M  V30 43 H 1.527952 3.177454 2.372306 0
M  V30 44 H -1.757505 0.758583 -0.881339 0
M  V30 45 H -1.922213 1.251249 -2.662262 0
M  V30 46 H -2.677431 -1.379047 -1.383028 0
M  V30 END ATOM
M  V30 BEGIN BOND
M  V30 1 1 1 2
M  V30 2 1 2 3
M  V30 3 2 3 4
M  V30 4 1 4 5
M  V30 5 2 5 6
M  V30 6 1 6 7
M  V30 7 1 7 8
M  V30 8 2 8 9
M  V30 9 1 9 10
M  V30 10 1 10 11
M  V30 11 1 11 12
M  V30 12 2 12 13
M  V30 13 1 12 14
M  V30 14 1 14 15
M  V30 15 2 15 16
M  V30 16 1 16 17
M  V30 17 2 17 18
M  V30 18 1 18 19
M  V30 19 1 19 20
M  V30 20 1 18 21
M  V30 21 1 21 22
M  V30 22 1 22 23
M  V30 23 2 21 24
M  V30 24 1 11 25
M  V30 25 2 7 26
M  V30 26 1 26 3
M  V30 27 1 25 8
M  V30 28 1 24 15
M  V30 29 1 1 27
M  V30 30 1 1 28
M  V30 31 1 1 29
M  V30 32 1 4 30
M  V30 33 1 5 31
M  V30 34 1 6 32
M  V30 35 1 11 33
M  V30 36 1 14 34
M  V30 37 1 16 35
M  V30 38 1 17 36
M  V30 39 1 20 37
M  V30 40 1 20 38
M  V30 41 1 20 39
M  V30 42 1 23 40
M  V30 43 1 23 41
M  V30 44 1 23 42
M  V30 45 1 24 43
M  V30 46 1 25 44
M  V30 47 1 25 45
M  V30 48 1 26 46
M  V30 END BOND
M  V30 END CTAB
M  END
>  <Dataset>  (439) 
ChEMBL_Kinases

>  <Ligand_Instance>  (439) 
nan

>  <PDB_ID>  (439) 
nan

>  <Standardized_SMILES>  (439) 
COc1cccc(C2=NOC(C(=O)Nc3ccc(OC)c(OC)c3)C2)c1

>  <Name>  (439) 
nan

>  <Pocket>  (439) 
nan

>  <ATP_Site>  (439) 
nan

>  <Peripheral>  (439) 
nan

>  <Num_H_Atoms_ProtBoundConf>  (439) 
nan

>  <Num_Resolved_Atoms>  (439) 
nan

>  <Num_Not_Resolved_Atoms>  (439) 
nan

$$$$
CHEMBL1463161
     RDKit          3D

  0  0  0  0  0  0  0  0  0  0999 V3000
M  V30 BEGIN CTAB
M  V30 COUNTS 37 39 0 0 0
M  V30 BEGIN ATOM
M  V30 1 C -0.362865 -5.064339 2.765826 0
M  V30 2 C -0.262259 -3.858370 1.907877 0
M  V30 3 C 0.085717 -2.605568 2.442586 0
M  V30 4 C 0.168179 -1.499489 1.623607 0
M  V30 5 N 0.496328 -0.206406 1.977940 0
M  V30 6 N 1.652053 0.150399 2.339764 0
M  V30 7 C 1.893904 1.532554 2.688524 0
M  V30 8 O 2.266596 2.283069 3.624164 0
M  V30 9 C 1.561298 2.247261 1.451662 0
M  V30 10 C 2.292585 2.158584 0.265040 0
M  V30 11 C 1.842903 2.852894 -0.833576 0
M  V30 12 C 0.690602 3.627221 -0.779662 0
M  V30 13 C -0.065712 3.741578 0.385956 0
M  V30 14 C 0.425347 3.021527 1.474886 0
M  V30 15 O -0.310610 3.111037 2.654652 0
M  V30 16 C -0.107368 -1.714479 0.288419 0
M  V30 17 C -0.048575 -0.660538 -0.638550 0
M  V30 18 C -0.300095 -0.771643 -1.985383 0
M  V30 19 C -0.643497 -2.024891 -2.497335 0
M  V30 20 C -0.715713 -3.104847 -1.619202 0
M  V30 21 C -0.450823 -2.908054 -0.287275 0
M  V30 22 C -0.528156 -4.016276 0.563434 0
M  V30 23 O -0.862638 -5.261148 0.084703 0
M  V30 24 H -1.473862 -5.199796 2.971329 0
M  V30 25 H 0.131229 -4.942526 3.723757 0
M  V30 26 H -0.061567 -5.970824 2.189039 0
M  V30 27 H 0.297358 -2.473094 3.493930 0
M  V30 28 H 3.167947 1.556139 0.251703 0
M  V30 29 H 2.354205 2.832006 -1.773731 0
M  V30 30 H 0.310296 4.195542 -1.634998 0
M  V30 31 H -0.966653 4.340469 0.451870 0
M  V30 32 H -0.243232 3.963505 3.213609 0
M  V30 33 H 0.207216 0.322321 -0.265165 0
M  V30 34 H -0.231125 0.100524 -2.621719 0
M  V30 35 H -0.836002 -2.078387 -3.541243 0
M  V30 36 H -0.984490 -4.017849 -2.069312 0
M  V30 37 H -0.790875 -5.614530 -0.844158 0
M  V30 END ATOM
M  V30 BEGIN BOND
M  V30 1 1 1 2
M  V30 2 2 2 3
M  V30 3 1 3 4
M  V30 4 1 4 5
M  V30 5 2 5 6 CFG=2
M  V30 6 1 6 7
M  V30 7 2 7 8
M  V30 8 1 7 9
M  V30 9 2 9 10
M  V30 10 1 10 11
M  V30 11 2 11 12
M  V30 12 1 12 13
M  V30 13 2 13 14
M  V30 14 1 14 15
M  V30 15 2 4 16
M  V30 16 1 16 17
M  V30 17 2 17 18
M  V30 18 1 18 19
M  V30 19 2 19 20
M  V30 20 1 20 21
M  V30 21 2 21 22
M  V30 22 1 22 23
M  V30 23 1 22 2
M  V30 24 1 14 9
M  V30 25 1 21 16
M  V30 26 1 1 24
M  V30 27 1 1 25
M  V30 28 1 1 26
M  V30 29 1 3 27
M  V30 30 1 10 28
M  V30 31 1 11 29
M  V30 32 1 12 30
M  V30 33 1 13 31
M  V30 34 1 15 32
M  V30 35 1 17 33
M  V30 36 1 18 34
M  V30 37 1 19 35
M  V30 38 1 20 36
M  V30 39 1 23 37
M  V30 END BOND
M  V30 END CTAB
M  END
>  <Dataset>  (440) 
ChEMBL_Kinases

>  <Ligand_Instance>  (440) 
nan

>  <PDB_ID>  (440) 
nan

>  <Standardized_SMILES>  (440) 
Cc1cc(N=NC(=O)c2ccccc2O)c2ccccc2c1O

>  <Name>  (440) 
nan

>  <Pocket>  (440) 
nan

>  <ATP_Site>  (440) 
nan

>  <Peripheral>  (440) 
nan

>  <Num_H_Atoms_ProtBoundConf>  (440) 
nan

>  <Num_Resolved_Atoms>  (440) 
nan

>  <Num_Not_Resolved_Atoms>  (440) 
nan

$$$$
CHEMBL1462546
     RDKit          3D

  0  0  0  0  0  0  0  0  0  0999 V3000
M  V30 BEGIN CTAB
M  V30 COUNTS 50 51 0 0 0
M  V30 BEGIN ATOM
M  V30 1 C 2.730740 -0.124446 -6.644446 0
M  V30 2 O 3.892748 0.066554 -5.866743 0
M  V30 3 C 3.795017 -0.016329 -4.485478 0
M  V30 4 C 2.570957 -0.282123 -3.902219 0
M  V30 5 C 2.480440 -0.363026 -2.535077 0
M  V30 6 C 3.534012 -0.197436 -1.671503 0
M  V30 7 N 3.493652 -0.267549 -0.266433 0
M  V30 8 C 2.396049 -0.513703 0.582664 0
M  V30 9 O 1.264789 -0.705396 0.074934 0
M  V30 10 C 2.472515 -0.565777 2.065757 0
M  V30 11 O 1.166346 -0.833274 2.546980 0
M  V30 12 C 0.075335 -0.036063 2.345560 0
M  V30 13 O 0.165094 1.042111 1.687493 0
M  V30 14 C -1.240208 -0.411641 2.891139 0
M  V30 15 C -1.436844 -1.584860 3.629333 0
M  V30 16 C -2.678960 -1.888568 4.116047 0
M  V30 17 O -2.966751 -3.009000 4.845995 0
M  V30 18 C -2.052983 -4.014458 5.210512 0
M  V30 19 C -3.768841 -1.042180 3.889093 0
M  V30 20 O -5.044440 -1.337564 4.379131 0
M  V30 21 C -5.912331 -2.095876 3.558605 0
M  V30 22 C -3.607005 0.121242 3.165220 0
M  V30 23 O -4.707866 0.938992 2.957799 0
M  V30 24 C -4.611358 2.146208 2.224658 0
M  V30 25 C -2.341135 0.394075 2.690799 0
M  V30 26 C 4.732052 0.064750 -2.291058 0
M  V30 27 N 5.954120 0.269771 -1.598490 0 CHG=1 VAL=4
M  V30 28 O 6.905511 0.954102 -2.009701 0
M  V30 29 O 6.563707 -0.083612 -0.424062 0 CHG=-1 VAL=1
M  V30 30 C 4.876671 0.156135 -3.652488 0
M  V30 31 H 2.944069 0.004511 -7.723069 0
M  V30 32 H 2.017833 0.676184 -6.362707 0
M  V30 33 H 2.299600 -1.128340 -6.427567 0
M  V30 34 H 1.706216 -0.421217 -4.548165 0
M  V30 35 H 1.511220 -0.569417 -2.165730 0
M  V30 36 H 4.358094 -0.126968 0.282117 0
M  V30 37 H 2.849022 0.416455 2.471918 0
M  V30 38 H 3.160680 -1.354749 2.416653 0
M  V30 39 H -0.613897 -2.232295 3.805636 0
M  V30 40 H -1.135560 -4.035760 4.605398 0
M  V30 41 H -1.753804 -3.868608 6.274824 0
M  V30 42 H -2.553122 -5.008893 5.066665 0
M  V30 43 H -6.545483 -1.442857 2.925680 0
M  V30 44 H -5.343624 -2.730905 2.834912 0
M  V30 45 H -6.565589 -2.752923 4.148114 0
M  V30 46 H -4.247405 2.982102 2.871455 0
M  V30 47 H -3.886306 2.073910 1.370619 0
M  V30 48 H -5.620808 2.461479 1.838980 0
M  V30 49 H -2.171055 1.277541 2.129457 0
M  V30 50 H 5.790410 0.358252 -4.159945 0
M  V30 END ATOM
M  V30 BEGIN BOND
M  V30 1 1 1 2
M  V30 2 1 2 3
M  V30 3 2 3 4
M  V30 4 1 4 5
M  V30 5 2 5 6
M  V30 6 1 6 7
M  V30 7 1 7 8
M  V30 8 2 8 9
M  V30 9 1 8 10
M  V30 10 1 10 11
M  V30 11 1 11 12
M  V30 12 2 12 13
M  V30 13 1 12 14
M  V30 14 2 14 15
M  V30 15 1 15 16
M  V30 16 1 16 17
M  V30 17 1 17 18
M  V30 18 2 16 19
M  V30 19 1 19 20
M  V30 20 1 20 21
M  V30 21 1 19 22
M  V30 22 1 22 23
M  V30 23 1 23 24
M  V30 24 2 22 25
M  V30 25 1 6 26
M  V30 26 1 26 27
M  V30 27 2 27 28
M  V30 28 1 27 29
M  V30 29 2 26 30
M  V30 30 1 30 3
M  V30 31 1 25 14
M  V30 32 1 1 31
M  V30 33 1 1 32
M  V30 34 1 1 33
M  V30 35 1 4 34
M  V30 36 1 5 35
M  V30 37 1 7 36
M  V30 38 1 10 37
M  V30 39 1 10 38
M  V30 40 1 15 39
M  V30 41 1 18 40
M  V30 42 1 18 41
M  V30 43 1 18 42
M  V30 44 1 21 43
M  V30 45 1 21 44
M  V30 46 1 21 45
M  V30 47 1 24 46
M  V30 48 1 24 47
M  V30 49 1 24 48
M  V30 50 1 25 49
M  V30 51 1 30 50
M  V30 END BOND
M  V30 END CTAB
M  END
>  <Dataset>  (441) 
ChEMBL_Kinases

>  <Ligand_Instance>  (441) 
nan

>  <PDB_ID>  (441) 
nan

>  <Standardized_SMILES>  (441) 
COc1ccc(NC(=O)COC(=O)c2cc(OC)c(OC)c(OC)c2)c([N+](=O)[O-])c1

>  <Name>  (441) 
nan

>  <Pocket>  (441) 
nan

>  <ATP_Site>  (441) 
nan

>  <Peripheral>  (441) 
nan

>  <Num_H_Atoms_ProtBoundConf>  (441) 
nan

>  <Num_Resolved_Atoms>  (441) 
nan

>  <Num_Not_Resolved_Atoms>  (441) 
nan

$$$$
CHEMBL1467600
     RDKit          3D

  0  0  0  0  0  0  0  0  0  0999 V3000
M  V30 BEGIN CTAB
M  V30 COUNTS 29 30 0 0 0
M  V30 BEGIN ATOM
M  V30 1 C -1.620213 -1.441083 4.692383 0
M  V30 2 C -2.777841 -1.048185 4.171283 0
M  V30 3 C -3.370853 0.090806 3.392320 0
M  V30 4 S -2.098957 1.345082 3.039927 0
M  V30 5 C -0.885080 0.675617 1.935493 0
M  V30 6 N -1.056929 0.791318 0.611928 0
M  V30 7 C -0.217591 0.331231 -0.321590 0
M  V30 8 N -0.620093 0.579774 -1.686120 0
M  V30 9 C 0.939614 -0.326545 0.035834 0
M  V30 10 C 1.883005 -0.844982 -0.804297 0
M  V30 11 C 1.848272 -0.807851 -2.291042 0
M  V30 12 C 2.981912 -1.471762 -0.143131 0
M  V30 13 C 4.169489 -2.123507 -0.812347 0
M  V30 14 S 2.617968 -1.292190 1.609341 0
M  V30 15 C 1.093426 -0.432394 1.397420 0
M  V30 16 N 0.238792 0.036647 2.296128 0
M  V30 17 H -1.076455 -2.178480 5.238984 0
M  V30 18 H -0.598366 -1.030076 4.740530 0
M  V30 19 H -3.434403 -1.855241 4.437611 0
M  V30 20 H -4.188551 0.524676 3.994643 0
M  V30 21 H -3.752375 -0.336693 2.433411 0
M  V30 22 H -1.203155 0.266798 -2.470077 0
M  V30 23 H -0.046068 1.441815 -1.896802 0
M  V30 24 H 2.608999 -1.439278 -2.735911 0
M  V30 25 H 0.820684 -1.021442 -2.665631 0
M  V30 26 H 2.055969 0.244495 -2.592297 0
M  V30 27 H 5.004103 -2.190213 -0.090636 0
M  V30 28 H 4.528618 -1.439223 -1.635230 0
M  V30 29 H 3.878975 -3.101512 -1.233432 0
M  V30 END ATOM
M  V30 BEGIN BOND
M  V30 1 2 1 2
M  V30 2 1 2 3
M  V30 3 1 3 4
M  V30 4 1 4 5
M  V30 5 2 5 6
M  V30 6 1 6 7
M  V30 7 1 7 8
M  V30 8 2 7 9
M  V30 9 1 9 10
M  V30 10 1 10 11
M  V30 11 2 10 12
M  V30 12 1 12 13
M  V30 13 1 12 14
M  V30 14 1 14 15
M  V30 15 2 15 16
M  V30 16 1 16 5
M  V30 17 1 15 9
M  V30 18 1 1 17
M  V30 19 1 1 18
M  V30 20 1 2 19
M  V30 21 1 3 20
M  V30 22 1 3 21
M  V30 23 1 8 22
M  V30 24 1 8 23
M  V30 25 1 11 24
M  V30 26 1 11 25
M  V30 27 1 11 26
M  V30 28 1 13 27
M  V30 29 1 13 28
M  V30 30 1 13 29
M  V30 END BOND
M  V30 END CTAB
M  END
>  <Dataset>  (442) 
ChEMBL_Kinases

>  <Ligand_Instance>  (442) 
nan

>  <PDB_ID>  (442) 
nan

>  <Standardized_SMILES>  (442) 
C=CCSc1nc(N)c2c(C)c(C)sc2n1

>  <Name>  (442) 
nan

>  <Pocket>  (442) 
nan

>  <ATP_Site>  (442) 
nan

>  <Peripheral>  (442) 
nan

>  <Num_H_Atoms_ProtBoundConf>  (442) 
nan

>  <Num_Resolved_Atoms>  (442) 
nan

>  <Num_Not_Resolved_Atoms>  (442) 
nan

$$$$
CHEMBL1467517
     RDKit          3D

  0  0  0  0  0  0  0  0  0  0999 V3000
M  V30 BEGIN CTAB
M  V30 COUNTS 41 43 0 0 0
M  V30 BEGIN ATOM
M  V30 1 O -0.656786 -4.048425 1.978589 0
M  V30 2 C 0.193791 -3.333227 1.393560 0
M  V30 3 C 0.322280 -3.432692 -0.105058 0
M  V30 4 N 1.355456 -2.530371 -0.575243 0
M  V30 5 C 2.642570 -2.974301 -0.690519 0
M  V30 6 C 3.492353 -1.995981 -1.153587 0
M  V30 7 C 2.674093 -0.901873 -1.327598 0
M  V30 8 C 1.383690 -1.246530 -0.971115 0
M  V30 9 C 0.205702 -0.427018 -0.997720 0
M  V30 10 O -0.914248 -0.967996 -0.736836 0
M  V30 11 C 0.007456 0.970390 -1.275585 0
M  V30 12 C -1.177053 1.432090 -1.815764 0
M  V30 13 C -1.399719 2.790560 -2.086737 0
M  V30 14 C -0.435934 3.728654 -1.821614 0
M  V30 15 C 0.761485 3.314149 -1.281950 0
M  V30 16 C 0.925602 1.970758 -1.036954 0
M  V30 17 N 1.037695 -2.433111 2.105082 0
M  V30 18 C 1.017147 -2.235695 3.552889 0
M  V30 19 C -0.141578 -1.413016 3.927868 0
M  V30 20 C 0.033241 -0.021883 3.931047 0
M  V30 21 C -1.005458 0.853055 4.273923 0
M  V30 22 C -2.253457 0.348368 4.624229 0
M  V30 23 N -2.392496 -0.999040 4.612230 0
M  V30 24 C -1.406416 -1.827860 4.286906 0
M  V30 25 H -0.634941 -3.240967 -0.613109 0
M  V30 26 H 0.587509 -4.486799 -0.337822 0
M  V30 27 H 3.023297 -3.978562 -0.458666 0
M  V30 28 H 4.555946 -2.088671 -1.332289 0
M  V30 29 H 3.069344 0.031194 -1.694398 0
M  V30 30 H -1.989417 0.745259 -2.053031 0
M  V30 31 H -2.365054 3.069695 -2.514629 0
M  V30 32 H -0.695005 4.741566 -2.061337 0
M  V30 33 H 1.520829 4.052147 -1.072875 0
M  V30 34 H 1.884845 1.729240 -0.605720 0
M  V30 35 H 1.714817 -1.884090 1.509990 0
M  V30 36 H 1.940085 -1.696598 3.817966 0
M  V30 37 H 0.979532 -3.221540 4.094458 0
M  V30 38 H 1.014689 0.393390 3.656017 0
M  V30 39 H -0.767305 1.923211 4.244887 0
M  V30 40 H -2.998148 1.089789 4.874119 0
M  V30 41 H -1.557604 -2.893322 4.291478 0
M  V30 END ATOM
M  V30 BEGIN BOND
M  V30 1 2 1 2
M  V30 2 1 2 3
M  V30 3 1 3 4
M  V30 4 1 4 5
M  V30 5 2 5 6
M  V30 6 1 6 7
M  V30 7 2 7 8
M  V30 8 1 8 9
M  V30 9 2 9 10
M  V30 10 1 9 11
M  V30 11 2 11 12
M  V30 12 1 12 13
M  V30 13 2 13 14
M  V30 14 1 14 15
M  V30 15 2 15 16
M  V30 16 1 2 17
M  V30 17 1 17 18
M  V30 18 1 18 19
M  V30 19 2 19 20
M  V30 20 1 20 21
M  V30 21 2 21 22
M  V30 22 1 22 23
M  V30 23 2 23 24
M  V30 24 1 8 4
M  V30 25 1 16 11
M  V30 26 1 24 19
M  V30 27 1 3 25
M  V30 28 1 3 26
M  V30 29 1 5 27
M  V30 30 1 6 28
M  V30 31 1 7 29
M  V30 32 1 12 30
M  V30 33 1 13 31
M  V30 34 1 14 32
M  V30 35 1 15 33
M  V30 36 1 16 34
M  V30 37 1 17 35
M  V30 38 1 18 36
M  V30 39 1 18 37
M  V30 40 1 20 38
M  V30 41 1 21 39
M  V30 42 1 22 40
M  V30 43 1 24 41
M  V30 END BOND
M  V30 END CTAB
M  END
>  <Dataset>  (443) 
ChEMBL_Kinases

>  <Ligand_Instance>  (443) 
nan

>  <PDB_ID>  (443) 
nan

>  <Standardized_SMILES>  (443) 
O=C(Cn1cccc1C(=O)c1ccccc1)NCc1cccnc1

>  <Name>  (443) 
nan

>  <Pocket>  (443) 
nan

>  <ATP_Site>  (443) 
nan

>  <Peripheral>  (443) 
nan

>  <Num_H_Atoms_ProtBoundConf>  (443) 
nan

>  <Num_Resolved_Atoms>  (443) 
nan

>  <Num_Not_Resolved_Atoms>  (443) 
nan

$$$$
CHEMBL1467476
     RDKit          3D

  0  0  0  0  0  0  0  0  0  0999 V3000
M  V30 BEGIN CTAB
M  V30 COUNTS 37 39 0 0 0
M  V30 BEGIN ATOM
M  V30 1 O -0.699806 -0.732783 2.795714 0
M  V30 2 C -0.490337 -1.619510 1.945104 0
M  V30 3 N 0.731718 -2.337388 2.060872 0
M  V30 4 N 1.712533 -2.138056 3.037555 0
M  V30 5 C 2.707647 -1.177805 2.667699 0
M  V30 6 C 3.434713 -1.605606 1.409289 0
M  V30 7 C 3.008940 -0.604642 0.395300 0
M  V30 8 O 3.501595 -0.577313 -0.753126 0
M  V30 9 N 2.012361 0.243738 0.948772 0
M  V30 10 C 1.071043 1.032145 0.236474 0
M  V30 11 C 1.024957 1.057255 -1.137488 0
M  V30 12 C 0.110976 1.822052 -1.862113 0
M  V30 13 C -0.808524 2.605664 -1.177364 0
M  V30 14 C -0.773324 2.589703 0.195586 0
M  V30 15 C 0.145434 1.820220 0.855183 0
M  V30 16 C 2.129405 0.159774 2.362873 0
M  V30 17 O 1.816154 1.025784 3.220793 0
M  V30 18 C -1.445941 -1.911148 0.882295 0
M  V30 19 C -1.306950 -2.866071 -0.099107 0
M  V30 20 C -2.263668 -3.071390 -1.064533 0
M  V30 21 C -3.404678 -2.298181 -1.056313 0
M  V30 22 N -3.576362 -1.354492 -0.112707 0
M  V30 23 C -2.614440 -1.171273 0.831528 0
M  V30 24 H 0.983191 -3.100149 1.383731 0
M  V30 25 H 2.184630 -3.019566 3.308167 0
M  V30 26 H 3.431886 -1.119497 3.500247 0
M  V30 27 H 3.138647 -2.596492 1.062988 0
M  V30 28 H 4.524418 -1.515779 1.525460 0
M  V30 29 H 1.688437 0.490209 -1.741658 0
M  V30 30 H 0.078610 1.838553 -2.942888 0
M  V30 31 H -1.517075 3.198635 -1.732227 0
M  V30 32 H -1.512297 3.219087 0.711978 0
M  V30 33 H 0.081082 1.884745 1.930317 0
M  V30 34 H -0.398206 -3.454262 -0.074180 0
M  V30 35 H -2.098794 -3.838811 -1.812557 0
M  V30 36 H -4.160017 -2.454435 -1.811886 0
M  V30 37 H -2.850309 -0.379338 1.553196 0
M  V30 END ATOM
M  V30 BEGIN BOND
M  V30 1 2 1 2
M  V30 2 1 2 3
M  V30 3 1 3 4
M  V30 4 1 4 5
M  V30 5 1 5 6
M  V30 6 1 6 7
M  V30 7 2 7 8
M  V30 8 1 7 9
M  V30 9 1 9 10
M  V30 10 2 10 11
M  V30 11 1 11 12
M  V30 12 2 12 13
M  V30 13 1 13 14
M  V30 14 2 14 15
M  V30 15 1 9 16
M  V30 16 2 16 17
M  V30 17 1 2 18
M  V30 18 2 18 19
M  V30 19 1 19 20
M  V30 20 2 20 21
M  V30 21 1 21 22
M  V30 22 2 22 23
M  V30 23 1 16 5
M  V30 24 1 23 18
M  V30 25 1 15 10
M  V30 26 1 3 24
M  V30 27 1 4 25
M  V30 28 1 5 26
M  V30 29 1 6 27
M  V30 30 1 6 28
M  V30 31 1 11 29
M  V30 32 1 12 30
M  V30 33 1 13 31
M  V30 34 1 14 32
M  V30 35 1 15 33
M  V30 36 1 19 34
M  V30 37 1 20 35
M  V30 38 1 21 36
M  V30 39 1 23 37
M  V30 END BOND
M  V30 END CTAB
M  END
>  <Dataset>  (444) 
ChEMBL_Kinases

>  <Ligand_Instance>  (444) 
nan

>  <PDB_ID>  (444) 
nan

>  <Standardized_SMILES>  (444) 
O=C(NNC1CC(=O)N(c2ccccc2)C1=O)c1cccnc1

>  <Name>  (444) 
nan

>  <Pocket>  (444) 
nan

>  <ATP_Site>  (444) 
nan

>  <Peripheral>  (444) 
nan

>  <Num_H_Atoms_ProtBoundConf>  (444) 
nan

>  <Num_Resolved_Atoms>  (444) 
nan

>  <Num_Not_Resolved_Atoms>  (444) 
nan

$$$$
CHEMBL1467298
     RDKit          3D

  0  0  0  0  0  0  0  0  0  0999 V3000
M  V30 BEGIN CTAB
M  V30 COUNTS 47 50 0 0 0
M  V30 BEGIN ATOM
M  V30 1 C -3.241403 -5.263719 1.426677 0
M  V30 2 O -2.125645 -4.805750 0.706815 0
M  V30 3 C -1.761255 -3.485735 0.519648 0
M  V30 4 C -2.475361 -2.430290 1.050177 0
M  V30 5 C -2.169938 -1.085438 0.903050 0
M  V30 6 C -2.932578 -0.058549 1.386951 0
M  V30 7 C -2.452612 1.205027 1.037996 0
M  V30 8 C -3.273786 2.361680 1.560483 0
M  V30 9 N -1.331442 1.414957 0.289469 0
M  V30 10 C -0.579483 0.369548 -0.182375 0
M  V30 11 C 0.628455 0.934658 -0.810159 0
M  V30 12 C 1.493589 1.561705 0.205562 0
M  V30 13 C 1.293464 2.969365 0.195758 0
M  V30 14 C 1.950115 3.857132 1.055249 0
M  V30 15 C 2.850567 3.347694 1.971362 0
M  V30 16 C 3.081093 1.990290 2.021027 0
M  V30 17 C 3.959957 1.420605 2.908414 0
M  V30 18 C 4.181352 0.038022 2.945856 0
M  V30 19 C 3.459915 -0.738226 2.029983 0
M  V30 20 C 2.588550 -0.158925 1.152652 0
M  V30 21 C 2.395931 1.199798 1.146739 0
M  V30 22 C -1.039119 -0.877913 0.149807 0
M  V30 23 C -0.270047 -1.862206 -0.414948 0
M  V30 24 C -0.612414 -3.183279 -0.244160 0
M  V30 25 O 0.017639 -4.286488 -0.727650 0
M  V30 26 C 1.186691 -4.249230 -1.514077 0
M  V30 27 H -2.854212 -6.045731 2.126616 0
M  V30 28 H -3.958014 -5.823402 0.774240 0
M  V30 29 H -3.716520 -4.512211 2.068130 0
M  V30 30 H -3.368757 -2.594147 1.645580 0
M  V30 31 H -3.791839 -0.274593 1.965093 0
M  V30 32 H -3.884948 2.756047 0.707761 0
M  V30 33 H -3.879402 2.073309 2.419704 0
M  V30 34 H -2.543542 3.192194 1.794920 0
M  V30 35 H 0.378150 1.663399 -1.606343 0
M  V30 36 H 1.253333 0.141337 -1.304219 0
M  V30 37 H 0.624480 3.522300 -0.459293 0
M  V30 38 H 1.818020 4.924402 1.066707 0
M  V30 39 H 3.369430 4.017011 2.647905 0
M  V30 40 H 4.440859 2.153357 3.551027 0
M  V30 41 H 4.898662 -0.259680 3.695003 0
M  V30 42 H 3.702089 -1.776274 2.136305 0
M  V30 43 H 2.104218 -0.814793 0.493277 0
M  V30 44 H 0.608425 -1.690062 -1.023111 0
M  V30 45 H 1.900477 -5.085737 -1.265633 0
M  V30 46 H 1.748677 -3.308818 -1.472567 0
M  V30 47 H 0.918266 -4.386908 -2.609810 0
M  V30 END ATOM
M  V30 BEGIN BOND
M  V30 1 1 1 2
M  V30 2 1 2 3
M  V30 3 2 3 4
M  V30 4 1 4 5
M  V30 5 2 5 6
M  V30 6 1 6 7
M  V30 7 1 7 8
M  V30 8 2 7 9
M  V30 9 1 9 10
M  V30 10 1 10 11
M  V30 11 1 11 12
M  V30 12 2 12 13
M  V30 13 1 13 14
M  V30 14 2 14 15
M  V30 15 1 15 16
M  V30 16 2 16 17
M  V30 17 1 17 18
M  V30 18 2 18 19
M  V30 19 1 19 20
M  V30 20 2 20 21
M  V30 21 2 10 22
M  V30 22 1 22 23
M  V30 23 2 23 24
M  V30 24 1 24 25
M  V30 25 1 25 26
M  V30 26 1 24 3
M  V30 27 1 22 5
M  V30 28 1 21 12
M  V30 29 1 21 16
M  V30 30 1 1 27
M  V30 31 1 1 28
M  V30 32 1 1 29
M  V30 33 1 4 30
M  V30 34 1 6 31
M  V30 35 1 8 32
M  V30 36 1 8 33
M  V30 37 1 8 34
M  V30 38 1 11 35
M  V30 39 1 11 36
M  V30 40 1 13 37
M  V30 41 1 14 38
M  V30 42 1 15 39
M  V30 43 1 17 40
M  V30 44 1 18 41
M  V30 45 1 19 42
M  V30 46 1 20 43
M  V30 47 1 23 44
M  V30 48 1 26 45
M  V30 49 1 26 46
M  V30 50 1 26 47
M  V30 END BOND
M  V30 END CTAB
M  END
>  <Dataset>  (445) 
ChEMBL_Kinases

>  <Ligand_Instance>  (445) 
nan

>  <PDB_ID>  (445) 
nan

>  <Standardized_SMILES>  (445) 
COc1cc2cc(C)nc(Cc3cccc4ccccc34)c2cc1OC

>  <Name>  (445) 
nan

>  <Pocket>  (445) 
nan

>  <ATP_Site>  (445) 
nan

>  <Peripheral>  (445) 
nan

>  <Num_H_Atoms_ProtBoundConf>  (445) 
nan

>  <Num_Resolved_Atoms>  (445) 
nan

>  <Num_Not_Resolved_Atoms>  (445) 
nan

$$$$
CHEMBL1467289
     RDKit          3D

  0  0  0  0  0  0  0  0  0  0999 V3000
M  V30 BEGIN CTAB
M  V30 COUNTS 50 52 0 0 0
M  V30 BEGIN ATOM
M  V30 1 C 1.481826 -5.833066 1.446637 0
M  V30 2 O 2.793567 -5.408408 1.220972 0
M  V30 3 C 3.167689 -4.202043 0.648920 0
M  V30 4 C 4.531840 -3.977861 0.516322 0
M  V30 5 C 4.930733 -2.785542 -0.049692 0
M  V30 6 C 4.015233 -1.846312 -0.470682 0
M  V30 7 C 2.656328 -2.058845 -0.343733 0
M  V30 8 C 1.652402 -1.074419 -0.784094 0
M  V30 9 N 2.001225 0.100735 -1.334975 0
M  V30 10 C 0.919972 0.826769 -1.654402 0
M  V30 11 C 0.885154 2.160327 -2.273387 0
M  V30 12 S 0.571774 3.514229 -1.268988 0 CHG=1 VAL=3
M  V30 13 O 0.566242 4.934136 -2.142329 0 CHG=-1 VAL=1
M  V30 14 C -0.580283 3.430439 -0.005550 0
M  V30 15 C -0.372324 2.461483 1.068635 0
M  V30 16 O 0.457970 1.588828 1.435956 0
M  V30 17 N -1.434849 2.498255 2.013385 0
M  V30 18 C -1.557155 1.673200 3.198456 0
M  V30 19 C -2.040213 0.324805 2.818909 0
M  V30 20 C -3.438095 0.317041 2.793416 0
M  V30 21 C -4.160498 -0.834353 2.470696 0
M  V30 22 C -3.498503 -1.999021 2.167365 0
M  V30 23 C -2.120355 -1.979771 2.195784 0
M  V30 24 C -1.399038 -0.851819 2.512423 0
M  V30 25 C -0.149944 0.012950 -1.259527 0
M  V30 26 C -1.589858 0.358203 -1.396567 0
M  V30 27 O 0.333221 -1.107893 -0.747173 0
M  V30 28 C 2.246863 -3.250768 0.222415 0
M  V30 29 H 1.154712 -5.647555 2.506616 0
M  V30 30 H 1.400859 -6.945957 1.319735 0
M  V30 31 H 0.723298 -5.381872 0.800540 0
M  V30 32 H 5.293979 -4.682084 0.830318 0
M  V30 33 H 5.985196 -2.557461 -0.178144 0
M  V30 34 H 4.372765 -0.912792 -0.915265 0
M  V30 35 H 1.901902 2.292304 -2.759190 0
M  V30 36 H 0.200226 2.149404 -3.175194 0
M  V30 37 H -0.640822 4.438731 0.500152 0
M  V30 38 H -1.608504 3.305053 -0.458809 0
M  V30 39 H -2.278852 3.147479 1.956012 0
M  V30 40 H -0.519739 1.497347 3.634957 0
M  V30 41 H -2.136700 2.121993 4.010944 0
M  V30 42 H -4.111166 1.139243 3.004198 0
M  V30 43 H -5.232788 -0.896803 2.435869 0
M  V30 44 H -3.980690 -2.938488 1.905467 0
M  V30 45 H -1.497782 -2.835572 1.975401 0
M  V30 46 H -0.329008 -0.744508 2.564242 0
M  V30 47 H -1.699994 1.343774 -1.860143 0
M  V30 48 H -2.006777 0.370539 -0.346381 0
M  V30 49 H -2.136191 -0.446509 -1.918349 0
M  V30 50 H 1.176675 -3.448983 0.337096 0
M  V30 END ATOM
M  V30 BEGIN BOND
M  V30 1 1 1 2
M  V30 2 1 2 3
M  V30 3 2 3 4
M  V30 4 1 4 5
M  V30 5 2 5 6
M  V30 6 1 6 7
M  V30 7 1 7 8
M  V30 8 2 8 9
M  V30 9 1 9 10
M  V30 10 1 10 11
M  V30 11 1 11 12
M  V30 12 1 12 13
M  V30 13 1 12 14
M  V30 14 1 14 15
M  V30 15 2 15 16
M  V30 16 1 15 17
M  V30 17 1 17 18
M  V30 18 1 18 19
M  V30 19 2 19 20
M  V30 20 1 20 21
M  V30 21 2 21 22
M  V30 22 1 22 23
M  V30 23 2 23 24
M  V30 24 2 10 25
M  V30 25 1 25 26
M  V30 26 1 25 27
M  V30 27 2 7 28
M  V30 28 1 28 3
M  V30 29 1 27 8
M  V30 30 1 24 19
M  V30 31 1 1 29
M  V30 32 1 1 30
M  V30 33 1 1 31
M  V30 34 1 4 32
M  V30 35 1 5 33
M  V30 36 1 6 34
M  V30 37 1 11 35
M  V30 38 1 11 36
M  V30 39 1 14 37
M  V30 40 1 14 38
M  V30 41 1 17 39
M  V30 42 1 18 40
M  V30 43 1 18 41
M  V30 44 1 20 42
M  V30 45 1 21 43
M  V30 46 1 22 44
M  V30 47 1 23 45
M  V30 48 1 24 46
M  V30 49 1 26 47
M  V30 50 1 26 48
M  V30 51 1 26 49
M  V30 52 1 28 50
M  V30 END BOND
M  V30 END CTAB
M  END
>  <Dataset>  (446) 
ChEMBL_Kinases

>  <Ligand_Instance>  (446) 
nan

>  <PDB_ID>  (446) 
nan

>  <Standardized_SMILES>  (446) 
COc1cccc(-c2nc(C[S+]([O-])CC(=O)NCc3ccccc3)c(C)o2)c1

>  <Name>  (446) 
nan

>  <Pocket>  (446) 
nan

>  <ATP_Site>  (446) 
nan

>  <Peripheral>  (446) 
nan

>  <Num_H_Atoms_ProtBoundConf>  (446) 
nan

>  <Num_Resolved_Atoms>  (446) 
nan

>  <Num_Not_Resolved_Atoms>  (446) 
nan

$$$$
CHEMBL1467225
     RDKit          3D

  0  0  0  0  0  0  0  0  0  0999 V3000
M  V30 BEGIN CTAB
M  V30 COUNTS 37 39 0 0 0
M  V30 BEGIN ATOM
M  V30 1 O 0.403987 -3.462271 4.013511 0
M  V30 2 C 0.285560 -4.004190 2.896667 0
M  V30 3 O -0.871488 -3.988900 2.091705 0
M  V30 4 C 1.462697 -4.695449 2.420152 0
M  V30 5 S 2.549541 -3.723837 1.353793 0
M  V30 6 C 1.753440 -3.233058 -0.160599 0
M  V30 7 C 1.472257 -1.830028 -0.401109 0
M  V30 8 C 2.125084 -1.326304 -1.568865 0
M  V30 9 N 1.775056 -0.045994 -1.844152 0
M  V30 10 N 0.908483 0.353837 -0.913168 0
M  V30 11 C 0.256779 1.595548 -0.912357 0
M  V30 12 C -0.321151 2.287615 0.118330 0
M  V30 13 C -0.993607 3.486799 -0.003694 0
M  V30 14 C -1.100327 4.043984 -1.270260 0
M  V30 15 C -0.550309 3.417421 -2.364509 0
M  V30 16 C 0.098897 2.228899 -2.145512 0
M  V30 17 C 0.763039 -0.725046 -0.076895 0
M  V30 18 N -0.025188 -0.693908 1.102002 0
M  V30 19 C -1.313597 -0.725492 1.483986 0
M  V30 20 C -1.356594 -0.573450 2.849981 0
M  V30 21 C -0.091209 -0.449253 3.342755 0
M  V30 22 C 0.749946 -0.524657 2.227280 0
M  V30 23 H -1.725883 -3.628775 2.525562 0
M  V30 24 H 2.084325 -5.147799 3.238349 0
M  V30 25 H 1.138131 -5.606449 1.802188 0
M  V30 26 H 0.752631 -3.821537 -0.222346 0
M  V30 27 H 2.308635 -3.724125 -0.998771 0
M  V30 28 H 2.831557 -1.725639 -2.297888 0
M  V30 29 H -0.255915 1.873990 1.102112 0
M  V30 30 H -1.416430 3.978620 0.881037 0
M  V30 31 H -1.631533 4.994169 -1.352755 0
M  V30 32 H -0.627745 3.863722 -3.354008 0
M  V30 33 H 0.519210 1.745624 -3.046958 0
M  V30 34 H -2.026796 -0.856427 0.696734 0
M  V30 35 H -2.312312 -0.553404 3.382606 0
M  V30 36 H 0.156332 -0.317179 4.379986 0
M  V30 37 H 1.822145 -0.443483 2.468082 0
M  V30 END ATOM
M  V30 BEGIN BOND
M  V30 1 2 1 2
M  V30 2 1 2 3
M  V30 3 1 2 4
M  V30 4 1 4 5
M  V30 5 1 5 6
M  V30 6 1 6 7
M  V30 7 1 7 8
M  V30 8 2 8 9
M  V30 9 1 9 10
M  V30 10 1 10 11
M  V30 11 2 11 12
M  V30 12 1 12 13
M  V30 13 2 13 14
M  V30 14 1 14 15
M  V30 15 2 15 16
M  V30 16 1 10 17
M  V30 17 1 17 18
M  V30 18 1 18 19
M  V30 19 2 19 20
M  V30 20 1 20 21
M  V30 21 2 21 22
M  V30 22 2 17 7
M  V30 23 1 22 18
M  V30 24 1 16 11
M  V30 25 1 3 23
M  V30 26 1 4 24
M  V30 27 1 4 25
M  V30 28 1 6 26
M  V30 29 1 6 27
M  V30 30 1 8 28
M  V30 31 1 12 29
M  V30 32 1 13 30
M  V30 33 1 14 31
M  V30 34 1 15 32
M  V30 35 1 16 33
M  V30 36 1 19 34
M  V30 37 1 20 35
M  V30 38 1 21 36
M  V30 39 1 22 37
M  V30 END BOND
M  V30 END CTAB
M  END
>  <Dataset>  (447) 
ChEMBL_Kinases

>  <Ligand_Instance>  (447) 
nan

>  <PDB_ID>  (447) 
nan

>  <Standardized_SMILES>  (447) 
O=C(O)CSCc1cnn(-c2ccccc2)c1-n1cccc1

>  <Name>  (447) 
nan

>  <Pocket>  (447) 
nan

>  <ATP_Site>  (447) 
nan

>  <Peripheral>  (447) 
nan

>  <Num_H_Atoms_ProtBoundConf>  (447) 
nan

>  <Num_Resolved_Atoms>  (447) 
nan

>  <Num_Not_Resolved_Atoms>  (447) 
nan

$$$$
CHEMBL1467187
     RDKit          3D

  0  0  0  0  0  0  0  0  0  0999 V3000
M  V30 BEGIN CTAB
M  V30 COUNTS 42 44 0 0 0
M  V30 BEGIN ATOM
M  V30 1 C -3.859233 -4.397000 2.082891 0
M  V30 2 O -3.007431 -4.227429 0.937328 0
M  V30 3 C -1.949367 -3.348418 1.006470 0
M  V30 4 C -1.661079 -2.601614 2.152102 0
M  V30 5 C -0.561318 -1.757553 2.068266 0
M  V30 6 N -0.329965 -1.070009 3.201695 0
M  V30 7 C 0.721077 -0.228875 3.213992 0
M  V30 8 N 1.474931 -0.121531 2.104352 0
M  V30 9 C 1.229028 -0.816851 0.979412 0
M  V30 10 N 2.130784 -0.576912 -0.067421 0
M  V30 11 C 3.282023 0.144463 -0.495733 0
M  V30 12 C 2.996179 1.581978 -0.809115 0
M  V30 13 C 2.438872 2.380875 0.287254 0
M  V30 14 C 3.171203 3.018217 1.270861 0
M  V30 15 C 2.674298 3.791764 2.295445 0
M  V30 16 C 1.287672 3.955400 2.359299 0
M  V30 17 C 0.537711 3.326023 1.386827 0
M  V30 18 C 1.043463 2.548713 0.355777 0
M  V30 19 C 0.167012 -1.691221 0.913722 0
M  V30 20 C -0.079326 -2.404703 -0.232074 0
M  V30 21 C -1.175279 -3.245582 -0.147954 0
M  V30 22 O -1.509651 -4.009781 -1.252153 0
M  V30 23 C -0.725970 -3.902261 -2.422012 0
M  V30 24 H -4.132280 -3.427599 2.548573 0
M  V30 25 H -3.382152 -5.086757 2.796189 0
M  V30 26 H -4.810781 -4.886574 1.771039 0
M  V30 27 H -2.261154 -2.695281 3.024491 0
M  V30 28 H 0.936776 0.341959 4.107150 0
M  V30 29 H 1.922739 -1.120549 -0.930770 0
M  V30 30 H 3.978279 0.192466 0.419713 0
M  V30 31 H 3.916348 -0.341123 -1.264923 0
M  V30 32 H 2.233159 1.567404 -1.645590 0
M  V30 33 H 3.912187 2.125277 -1.146011 0
M  V30 34 H 4.256836 2.867190 1.193116 0
M  V30 35 H 3.354390 4.233528 3.002196 0
M  V30 36 H 0.897336 4.557809 3.165087 0
M  V30 37 H -0.534986 3.537161 1.558466 0
M  V30 38 H 0.326264 2.122476 -0.328183 0
M  V30 39 H 0.493052 -2.340154 -1.116191 0
M  V30 40 H 0.375605 -4.035724 -2.227217 0
M  V30 41 H -0.940783 -2.983344 -2.992528 0
M  V30 42 H -0.971577 -4.768404 -3.092126 0
M  V30 END ATOM
M  V30 BEGIN BOND
M  V30 1 1 1 2
M  V30 2 1 2 3
M  V30 3 2 3 4
M  V30 4 1 4 5
M  V30 5 2 5 6
M  V30 6 1 6 7
M  V30 7 2 7 8
M  V30 8 1 8 9
M  V30 9 1 9 10
M  V30 10 1 10 11
M  V30 11 1 11 12
M  V30 12 1 12 13
M  V30 13 2 13 14
M  V30 14 1 14 15
M  V30 15 2 15 16
M  V30 16 1 16 17
M  V30 17 2 17 18
M  V30 18 2 9 19
M  V30 19 1 19 20
M  V30 20 2 20 21
M  V30 21 1 21 22
M  V30 22 1 22 23
M  V30 23 1 21 3
M  V30 24 1 19 5
M  V30 25 1 18 13
M  V30 26 1 1 24
M  V30 27 1 1 25
M  V30 28 1 1 26
M  V30 29 1 4 27
M  V30 30 1 7 28
M  V30 31 1 10 29
M  V30 32 1 11 30
M  V30 33 1 11 31
M  V30 34 1 12 32
M  V30 35 1 12 33
M  V30 36 1 14 34
M  V30 37 1 15 35
M  V30 38 1 16 36
M  V30 39 1 17 37
M  V30 40 1 18 38
M  V30 41 1 20 39
M  V30 42 1 23 40
M  V30 43 1 23 41
M  V30 44 1 23 42
M  V30 END BOND
M  V30 END CTAB
M  END
>  <Dataset>  (448) 
ChEMBL_Kinases

>  <Ligand_Instance>  (448) 
nan

>  <PDB_ID>  (448) 
nan

>  <Standardized_SMILES>  (448) 
COc1cc2ncnc(NCCc3ccccc3)c2cc1OC

>  <Name>  (448) 
nan

>  <Pocket>  (448) 
nan

>  <ATP_Site>  (448) 
nan

>  <Peripheral>  (448) 
nan

>  <Num_H_Atoms_ProtBoundConf>  (448) 
nan

>  <Num_Resolved_Atoms>  (448) 
nan

>  <Num_Not_Resolved_Atoms>  (448) 
nan

$$$$
CHEMBL1466910
     RDKit          3D

  0  0  0  0  0  0  0  0  0  0999 V3000
M  V30 BEGIN CTAB
M  V30 COUNTS 35 36 0 0 0
M  V30 BEGIN ATOM
M  V30 1 C -3.337773 -0.924610 2.434933 0
M  V30 2 C -2.140718 -1.685471 1.923537 0
M  V30 3 O -1.472492 -1.061449 0.857072 0
M  V30 4 C -0.356305 -1.686667 0.317470 0
M  V30 5 C 0.105001 -2.893836 0.800945 0
M  V30 6 C 1.202565 -3.583659 0.326221 0
M  V30 7 C 1.858730 -2.969634 -0.721900 0
M  V30 8 C 3.059250 -3.550203 -1.370676 0
M  V30 9 C 1.442525 -1.760729 -1.247283 0
M  V30 10 C 0.324003 -1.094839 -0.735859 0
M  V30 11 S -0.204385 0.420616 -1.388368 0
M  V30 12 O 0.786813 0.852808 -2.444160 0
M  V30 13 O -1.572615 0.323521 -1.971210 0
M  V30 14 N -0.150110 1.592650 -0.119985 0
M  V30 15 C -1.111126 2.355228 0.470341 0
M  V30 16 C -0.485855 3.112014 1.428547 0
M  V30 17 C 0.856678 2.795644 1.406215 0
M  V30 18 C 1.936796 3.361499 2.267165 0
M  V30 19 N 1.018654 1.857839 0.439731 0
M  V30 20 H -3.082942 0.152287 2.533262 0
M  V30 21 H -4.270080 -1.122311 1.905711 0
M  V30 22 H -3.486317 -1.276251 3.495600 0
M  V30 23 H -2.433690 -2.708228 1.609937 0
M  V30 24 H -1.400995 -1.806171 2.746935 0
M  V30 25 H -0.467156 -3.302117 1.620213 0
M  V30 26 H 1.546476 -4.512798 0.708388 0
M  V30 27 H 2.866665 -3.830895 -2.439952 0
M  V30 28 H 3.489711 -4.413304 -0.839681 0
M  V30 29 H 3.871520 -2.776178 -1.438667 0
M  V30 30 H 1.936501 -1.258164 -2.066354 0
M  V30 31 H -2.131035 2.277430 0.146467 0
M  V30 32 H -0.985624 3.814006 2.062738 0
M  V30 33 H 2.363840 2.556953 2.915136 0
M  V30 34 H 1.555724 4.222824 2.822043 0
M  V30 35 H 2.761929 3.650740 1.574777 0
M  V30 END ATOM
M  V30 BEGIN BOND
M  V30 1 1 1 2
M  V30 2 1 2 3
M  V30 3 1 3 4
M  V30 4 2 4 5
M  V30 5 1 5 6
M  V30 6 2 6 7
M  V30 7 1 7 8
M  V30 8 1 7 9
M  V30 9 2 9 10
M  V30 10 1 10 11
M  V30 11 2 11 12
M  V30 12 2 11 13
M  V30 13 1 11 14
M  V30 14 1 14 15
M  V30 15 2 15 16
M  V30 16 1 16 17
M  V30 17 1 17 18
M  V30 18 2 17 19
M  V30 19 1 10 4
M  V30 20 1 19 14
M  V30 21 1 1 20
M  V30 22 1 1 21
M  V30 23 1 1 22
M  V30 24 1 2 23
M  V30 25 1 2 24
M  V30 26 1 5 25
M  V30 27 1 6 26
M  V30 28 1 8 27
M  V30 29 1 8 28
M  V30 30 1 8 29
M  V30 31 1 9 30
M  V30 32 1 15 31
M  V30 33 1 16 32
M  V30 34 1 18 33
M  V30 35 1 18 34
M  V30 36 1 18 35
M  V30 END BOND
M  V30 END CTAB
M  END
>  <Dataset>  (449) 
ChEMBL_Kinases

>  <Ligand_Instance>  (449) 
nan

>  <PDB_ID>  (449) 
nan

>  <Standardized_SMILES>  (449) 
CCOc1ccc(C)cc1S(=O)(=O)n1ccc(C)n1

>  <Name>  (449) 
nan

>  <Pocket>  (449) 
nan

>  <ATP_Site>  (449) 
nan

>  <Peripheral>  (449) 
nan

>  <Num_H_Atoms_ProtBoundConf>  (449) 
nan

>  <Num_Resolved_Atoms>  (449) 
nan

>  <Num_Not_Resolved_Atoms>  (449) 
nan

$$$$
CHEMBL1466477
     RDKit          3D

  0  0  0  0  0  0  0  0  0  0999 V3000
M  V30 BEGIN CTAB
M  V30 COUNTS 42 43 0 0 0
M  V30 BEGIN ATOM
M  V30 1 C -0.832987 -5.470386 2.613720 0
M  V30 2 C 0.068295 -4.343818 2.306202 0
M  V30 3 C 1.407953 -4.312669 2.622022 0
M  V30 4 C 2.189745 -3.221905 2.302143 0
M  V30 5 Cl 3.868498 -3.419882 2.809337 0
M  V30 6 C 1.666381 -2.097445 1.644545 0
M  V30 7 S 2.888817 -0.909146 1.366307 0
M  V30 8 O 3.641569 -0.702489 2.657133 0
M  V30 9 O 3.925562 -1.506956 0.415688 0
M  V30 10 N 2.376399 0.542690 0.665382 0
M  V30 11 C 1.447892 1.330288 1.389961 0
M  V30 12 C 1.127604 2.562861 0.593318 0
M  V30 13 C 0.650364 2.256730 -0.802849 0
M  V30 14 C 0.839872 3.600818 -1.477741 0
M  V30 15 C 1.721167 4.330549 -0.483432 0
M  V30 16 O 2.256859 3.339377 0.341777 0
M  V30 17 C 0.326121 -2.158890 1.342172 0
M  V30 18 C -0.458298 -3.242364 1.658201 0
M  V30 19 O -1.785704 -3.225332 1.323076 0
M  V30 20 C -2.449337 -2.168290 0.659448 0
M  V30 21 C -1.841600 -1.935276 -0.668152 0
M  V30 22 N -2.558991 -0.864666 -1.267918 0
M  V30 23 O -1.006755 -2.198378 -1.552739 0
M  V30 24 H -0.240292 -6.358209 2.895704 0
M  V30 25 H -1.525092 -5.255144 3.457622 0
M  V30 26 H -1.420802 -5.734281 1.697331 0
M  V30 27 H 1.757253 -5.203319 3.126845 0
M  V30 28 H 3.204519 1.046493 0.313825 0
M  V30 29 H 1.957615 1.716477 2.328267 0
M  V30 30 H 0.592499 0.764691 1.713127 0
M  V30 31 H 0.326675 3.157140 1.082606 0
M  V30 32 H -0.444605 2.010640 -0.708110 0
M  V30 33 H 1.219881 1.451567 -1.295465 0
M  V30 34 H -0.128791 4.128546 -1.564513 0
M  V30 35 H 1.357586 3.504092 -2.453374 0
M  V30 36 H 1.088415 4.973259 0.163047 0
M  V30 37 H 2.513809 4.909224 -0.998563 0
M  V30 38 H -0.011858 -1.278244 0.832408 0
M  V30 39 H -2.311124 -1.267484 1.305092 0
M  V30 40 H -3.539483 -2.398757 0.551218 0
M  V30 41 H -3.079444 -0.220269 -1.901510 0
M  V30 42 H -2.921295 0.075610 -0.971448 0
M  V30 END ATOM
M  V30 BEGIN BOND
M  V30 1 1 1 2
M  V30 2 2 2 3
M  V30 3 1 3 4
M  V30 4 1 4 5
M  V30 5 2 4 6
M  V30 6 1 6 7
M  V30 7 2 7 8
M  V30 8 2 7 9
M  V30 9 1 7 10
M  V30 10 1 10 11
M  V30 11 1 11 12
M  V30 12 1 12 13
M  V30 13 1 13 14
M  V30 14 1 14 15
M  V30 15 1 15 16
M  V30 16 1 6 17
M  V30 17 2 17 18
M  V30 18 1 18 19
M  V30 19 1 19 20
M  V30 20 1 20 21
M  V30 21 1 21 22
M  V30 22 2 21 23
M  V30 23 1 18 2
M  V30 24 1 16 12
M  V30 25 1 1 24
M  V30 26 1 1 25
M  V30 27 1 1 26
M  V30 28 1 3 27
M  V30 29 1 10 28
M  V30 30 1 11 29
M  V30 31 1 11 30
M  V30 32 1 12 31
M  V30 33 1 13 32
M  V30 34 1 13 33
M  V30 35 1 14 34
M  V30 36 1 14 35
M  V30 37 1 15 36
M  V30 38 1 15 37
M  V30 39 1 17 38
M  V30 40 1 20 39
M  V30 41 1 20 40
M  V30 42 1 22 41
M  V30 43 1 22 42
M  V30 END BOND
M  V30 END CTAB
M  END
>  <Dataset>  (450) 
ChEMBL_Kinases

>  <Ligand_Instance>  (450) 
nan

>  <PDB_ID>  (450) 
nan

>  <Standardized_SMILES>  (450) 
Cc1cc(Cl)c(S(=O)(=O)NCC2CCCO2)cc1OCC(N)=O

>  <Name>  (450) 
nan

>  <Pocket>  (450) 
nan

>  <ATP_Site>  (450) 
nan

>  <Peripheral>  (450) 
nan

>  <Num_H_Atoms_ProtBoundConf>  (450) 
nan

>  <Num_Resolved_Atoms>  (450) 
nan

>  <Num_Not_Resolved_Atoms>  (450) 
nan

$$$$
CHEMBL1466474
     RDKit          3D

  0  0  0  0  0  0  0  0  0  0999 V3000
M  V30 BEGIN CTAB
M  V30 COUNTS 64 66 0 0 0
M  V30 BEGIN ATOM
M  V30 1 C 6.866043 -1.495527 2.258164 0
M  V30 2 O 6.432654 -0.567795 3.236113 0
M  V30 3 C 5.474273 0.358632 2.847071 0
M  V30 4 C 4.923782 0.431886 1.581517 0
M  V30 5 C 3.971767 1.362664 1.219582 0
M  V30 6 C 3.526321 2.286055 2.158866 0
M  V30 7 C 2.502259 3.287102 1.784578 0
M  V30 8 C 1.100373 2.824523 2.034845 0
M  V30 9 N 0.700201 1.644455 1.340284 0
M  V30 10 C 0.685311 1.545302 -0.078799 0
M  V30 11 O 1.065065 2.621563 -0.607073 0
M  V30 12 C 0.235937 0.226791 -0.590029 0
M  V30 13 C 0.216682 0.140341 -2.084930 0
M  V30 14 C -0.720053 1.167465 -2.713645 0
M  V30 15 N -2.079698 0.976704 -2.246398 0
M  V30 16 C -2.808951 -0.220160 -2.438507 0
M  V30 17 O -2.280814 -1.209587 -3.050056 0
M  V30 18 C -4.188376 -0.294538 -1.916060 0
M  V30 19 N -4.785134 -1.613476 -2.194461 0
M  V30 20 C -5.434771 -1.732329 -3.340427 0
M  V30 21 N -5.959583 -2.929941 -3.562541 0
M  V30 22 C -5.801485 -3.913582 -2.636956 0
M  V30 23 S -6.420771 -5.696669 -2.667666 0
M  V30 24 C -5.718245 -6.078220 -1.104157 0
M  V30 25 C -5.787946 -7.401880 -0.398570 0
M  V30 26 C -5.069154 -4.897468 -0.633997 0
M  V30 27 C -4.379789 -4.940570 0.697538 0
M  V30 28 C -5.128061 -3.802879 -1.440766 0
M  V30 29 C -4.602131 -2.546080 -1.254635 0
M  V30 30 O -3.955260 -2.269978 -0.214901 0
M  V30 31 C 4.092574 2.187353 3.407898 0
M  V30 32 C 5.042787 1.276878 3.811210 0
M  V30 33 O 5.583335 1.217075 5.084146 0
M  V30 34 C 5.129634 2.154999 6.040053 0
M  V30 35 H 7.460857 -0.919247 1.496667 0
M  V30 36 H 6.025977 -1.961406 1.702188 0
M  V30 37 H 7.553500 -2.254898 2.689161 0
M  V30 38 H 5.261039 -0.284706 0.831098 0
M  V30 39 H 3.599912 1.338633 0.197445 0
M  V30 40 H 2.629124 4.206554 2.411697 0
M  V30 41 H 2.685396 3.606929 0.744662 0
M  V30 42 H 0.899698 2.788085 3.122881 0
M  V30 43 H 0.443642 3.670743 1.673146 0
M  V30 44 H 0.410300 0.832304 1.965706 0
M  V30 45 H 0.949685 -0.550330 -0.237392 0
M  V30 46 H -0.742697 -0.070483 -0.145792 0
M  V30 47 H 1.248589 0.375925 -2.457241 0
M  V30 48 H -0.050873 -0.873026 -2.439962 0
M  V30 49 H -0.634845 1.106347 -3.805841 0
M  V30 50 H -0.350954 2.161780 -2.400329 0
M  V30 51 H -2.556119 1.776820 -1.731530 0
M  V30 52 H -4.838160 0.475518 -2.363306 0
M  V30 53 H -4.224652 -0.113807 -0.804791 0
M  V30 54 H -5.594026 -1.006552 -4.102665 0
M  V30 55 H -4.789897 -7.708245 -0.022523 0
M  V30 56 H -6.049170 -8.134360 -1.192216 0
M  V30 57 H -6.450438 -7.377819 0.463636 0
M  V30 58 H -4.538105 -3.984140 1.251987 0
M  V30 59 H -4.837993 -5.708413 1.349173 0
M  V30 60 H -3.306727 -5.196657 0.596554 0
M  V30 61 H 3.731192 2.921495 4.133010 0
M  V30 62 H 5.389785 1.846037 7.073654 0
M  V30 63 H 4.001956 2.169064 6.003020 0
M  V30 64 H 5.455696 3.183367 5.804327 0
M  V30 END ATOM
M  V30 BEGIN BOND
M  V30 1 1 1 2
M  V30 2 1 2 3
M  V30 3 2 3 4
M  V30 4 1 4 5
M  V30 5 2 5 6
M  V30 6 1 6 7
M  V30 7 1 7 8
M  V30 8 1 8 9
M  V30 9 1 9 10
M  V30 10 2 10 11
M  V30 11 1 10 12
M  V30 12 1 12 13
M  V30 13 1 13 14
M  V30 14 1 14 15
M  V30 15 1 15 16
M  V30 16 2 16 17
M  V30 17 1 16 18
M  V30 18 1 18 19
M  V30 19 1 19 20
M  V30 20 2 20 21
M  V30 21 1 21 22
M  V30 22 1 22 23
M  V30 23 1 23 24
M  V30 24 1 24 25
M  V30 25 2 24 26
M  V30 26 1 26 27
M  V30 27 1 26 28
M  V30 28 1 28 29
M  V30 29 2 29 30
M  V30 30 1 6 31
M  V30 31 2 31 32
M  V30 32 1 32 33
M  V30 33 1 33 34
M  V30 34 1 32 3
M  V30 35 1 29 19
M  V30 36 2 28 22
M  V30 37 1 1 35
M  V30 38 1 1 36
M  V30 39 1 1 37
M  V30 40 1 4 38
M  V30 41 1 5 39
M  V30 42 1 7 40
M  V30 43 1 7 41
M  V30 44 1 8 42
M  V30 45 1 8 43
M  V30 46 1 9 44
M  V30 47 1 12 45
M  V30 48 1 12 46
M  V30 49 1 13 47
M  V30 50 1 13 48
M  V30 51 1 14 49
M  V30 52 1 14 50
M  V30 53 1 15 51
M  V30 54 1 18 52
M  V30 55 1 18 53
M  V30 56 1 20 54
M  V30 57 1 25 55
M  V30 58 1 25 56
M  V30 59 1 25 57
M  V30 60 1 27 58
M  V30 61 1 27 59
M  V30 62 1 27 60
M  V30 63 1 31 61
M  V30 64 1 34 62
M  V30 65 1 34 63
M  V30 66 1 34 64
M  V30 END BOND
M  V30 END CTAB
M  END
>  <Dataset>  (451) 
ChEMBL_Kinases

>  <Ligand_Instance>  (451) 
nan

>  <PDB_ID>  (451) 
nan

>  <Standardized_SMILES>  (451) 
COc1ccc(CCNC(=O)CCCNC(=O)Cn2cnc3sc(C)c(C)c3c2=O)cc1OC

>  <Name>  (451) 
nan

>  <Pocket>  (451) 
nan

>  <ATP_Site>  (451) 
nan

>  <Peripheral>  (451) 
nan

>  <Num_H_Atoms_ProtBoundConf>  (451) 
nan

>  <Num_Resolved_Atoms>  (451) 
nan

>  <Num_Not_Resolved_Atoms>  (451) 
nan

$$$$
CHEMBL1466449
     RDKit          3D

  0  0  0  0  0  0  0  0  0  0999 V3000
M  V30 BEGIN CTAB
M  V30 COUNTS 54 57 0 0 0
M  V30 BEGIN ATOM
M  V30 1 C 0.968472 0.302570 5.872081 0
M  V30 2 C 1.864346 -0.585200 5.069392 0
M  V30 3 O 2.039341 -0.033186 3.780303 0
M  V30 4 C 2.588867 1.209232 3.608912 0
M  V30 5 O 2.933071 1.843004 4.639357 0
M  V30 6 C 2.798712 1.840296 2.309840 0
M  V30 7 N 3.340465 3.062429 2.160149 0
M  V30 8 C 3.385888 3.333379 0.825273 0
M  V30 9 C 3.843281 4.438521 0.123806 0
M  V30 10 C 3.781403 4.476730 -1.254032 0
M  V30 11 C 3.246783 3.373350 -1.912017 0
M  V30 12 C 2.781970 2.257277 -1.254266 0
M  V30 13 C 2.858721 2.254234 0.106782 0
M  V30 14 C 2.497984 1.331343 1.062715 0
M  V30 15 N 1.901742 0.031547 0.869619 0
M  V30 16 C 0.493996 0.149199 0.875889 0
M  V30 17 O 0.008610 1.295813 1.038450 0
M  V30 18 C -0.424539 -0.969133 0.706674 0
M  V30 19 C -1.775470 -0.686813 0.736065 0
M  V30 20 C -2.650477 -1.762396 0.573372 0
M  V30 21 C -2.246463 -3.075001 0.387220 0
M  V30 22 S -3.505340 -4.273011 0.203245 0
M  V30 23 O -3.105576 -5.579757 0.823668 0
M  V30 24 O -4.734900 -3.814122 0.942620 0
M  V30 25 N -3.974171 -4.514493 -1.429970 0
M  V30 26 C -4.510889 -3.342380 -2.041980 0
M  V30 27 C -4.158066 -3.399934 -3.510387 0
M  V30 28 C -2.902480 -4.208109 -3.541581 0
M  V30 29 C -2.901726 -4.994405 -2.273696 0
M  V30 30 C -0.888403 -3.306697 0.365210 0
M  V30 31 C 0.006965 -2.263194 0.523445 0
M  V30 32 H 0.548473 1.099859 5.235592 0
M  V30 33 H 1.493286 0.757853 6.742294 0
M  V30 34 H 0.064008 -0.247259 6.261990 0
M  V30 35 H 1.477708 -1.619753 5.018848 0
M  V30 36 H 2.850907 -0.679434 5.603730 0
M  V30 37 H 3.681457 3.726432 2.890354 0
M  V30 38 H 4.258514 5.290380 0.675969 0
M  V30 39 H 4.146503 5.354180 -1.776967 0
M  V30 40 H 3.216114 3.442374 -2.988627 0
M  V30 41 H 2.368954 1.406019 -1.771386 0
M  V30 42 H 2.332387 -0.912508 0.735880 0
M  V30 43 H -2.161458 0.316605 0.877716 0
M  V30 44 H -3.705702 -1.500288 0.602574 0
M  V30 45 H -4.184821 -2.383729 -1.575917 0
M  V30 46 H -5.618066 -3.363731 -1.968097 0
M  V30 47 H -3.973868 -2.385009 -3.893258 0
M  V30 48 H -4.936406 -3.940577 -4.097924 0
M  V30 49 H -2.925496 -4.919646 -4.404905 0
M  V30 50 H -2.009849 -3.524162 -3.624215 0
M  V30 51 H -1.915632 -4.932879 -1.763858 0
M  V30 52 H -3.136879 -6.063886 -2.474502 0
M  V30 53 H -0.602631 -4.344750 0.217720 0
M  V30 54 H 1.061339 -2.490635 0.499530 0
M  V30 END ATOM
M  V30 BEGIN BOND
M  V30 1 1 1 2
M  V30 2 1 2 3
M  V30 3 1 3 4
M  V30 4 2 4 5
M  V30 5 1 4 6
M  V30 6 1 6 7
M  V30 7 1 7 8
M  V30 8 2 8 9
M  V30 9 1 9 10
M  V30 10 2 10 11
M  V30 11 1 11 12
M  V30 12 2 12 13
M  V30 13 1 13 14
M  V30 14 1 14 15
M  V30 15 1 15 16
M  V30 16 2 16 17
M  V30 17 1 16 18
M  V30 18 2 18 19
M  V30 19 1 19 20
M  V30 20 2 20 21
M  V30 21 1 21 22
M  V30 22 2 22 23
M  V30 23 2 22 24
M  V30 24 1 22 25
M  V30 25 1 25 26
M  V30 26 1 26 27
M  V30 27 1 27 28
M  V30 28 1 28 29
M  V30 29 1 21 30
M  V30 30 2 30 31
M  V30 31 2 14 6
M  V30 32 1 31 18
M  V30 33 1 13 8
M  V30 34 1 29 25
M  V30 35 1 1 32
M  V30 36 1 1 33
M  V30 37 1 1 34
M  V30 38 1 2 35
M  V30 39 1 2 36
M  V30 40 1 7 37
M  V30 41 1 9 38
M  V30 42 1 10 39
M  V30 43 1 11 40
M  V30 44 1 12 41
M  V30 45 1 15 42
M  V30 46 1 19 43
M  V30 47 1 20 44
M  V30 48 1 26 45
M  V30 49 1 26 46
M  V30 50 1 27 47
M  V30 51 1 27 48
M  V30 52 1 28 49
M  V30 53 1 28 50
M  V30 54 1 29 51
M  V30 55 1 29 52
M  V30 56 1 30 53
M  V30 57 1 31 54
M  V30 END BOND
M  V30 END CTAB
M  END
>  <Dataset>  (452) 
ChEMBL_Kinases

>  <Ligand_Instance>  (452) 
nan

>  <PDB_ID>  (452) 
nan

>  <Standardized_SMILES>  (452) 
CCOC(=O)c1[nH]c2ccccc2c1NC(=O)c1ccc(S(=O)(=O)N2CCCC2)cc1

>  <Name>  (452) 
nan

>  <Pocket>  (452) 
nan

>  <ATP_Site>  (452) 
nan

>  <Peripheral>  (452) 
nan

>  <Num_H_Atoms_ProtBoundConf>  (452) 
nan

>  <Num_Resolved_Atoms>  (452) 
nan

>  <Num_Not_Resolved_Atoms>  (452) 
nan

$$$$
CHEMBL1466443
     RDKit          3D

  0  0  0  0  0  0  0  0  0  0999 V3000
M  V30 BEGIN CTAB
M  V30 COUNTS 50 54 0 0 0
M  V30 BEGIN ATOM
M  V30 1 C -4.668768 -3.665842 3.370028 0
M  V30 2 O -3.319772 -4.138138 3.262018 0
M  V30 3 C -2.477551 -3.677987 2.282918 0
M  V30 4 C -1.170452 -4.086981 2.119526 0
M  V30 5 C -0.338144 -3.598105 1.110736 0
M  V30 6 C -0.913705 -2.681695 0.293623 0
M  V30 7 C -0.043938 -2.153380 -0.781420 0
M  V30 8 C 0.010218 -2.771305 -2.018293 0
M  V30 9 C 0.765637 -2.391466 -3.094170 0
M  V30 10 N 1.501392 -1.305377 -2.854442 0
M  V30 11 C 1.481075 -0.672648 -1.669663 0
M  V30 12 S 2.380372 0.792897 -1.128786 0
M  V30 13 C 1.694535 0.813811 0.505280 0
M  V30 14 C 2.040544 1.815658 1.500391 0
M  V30 15 O 1.504668 1.744459 2.619378 0
M  V30 16 N 2.969189 2.844415 1.188148 0
M  V30 17 C 3.293619 3.812342 2.172386 0
M  V30 18 C 2.509177 4.945055 2.200450 0
M  V30 19 C 3.000154 5.748987 3.231644 0
M  V30 20 C 2.591756 7.075777 3.757206 0
M  V30 21 O 4.012496 5.082420 3.746691 0
M  V30 22 N 4.206115 3.957552 3.153795 0
M  V30 23 C 0.853946 -0.252689 0.545003 0
M  V30 24 N 0.151659 -0.476703 1.777159 0
M  V30 25 C 0.736933 -1.029837 -0.579485 0
M  V30 26 C 0.560183 -3.294221 -4.242951 0
M  V30 27 C -0.721942 -4.032842 -3.903391 0
M  V30 28 C -0.769014 -4.002194 -2.411522 0
M  V30 29 C -2.201068 -2.195109 0.353404 0
M  V30 30 C -2.959523 -2.728087 1.378311 0
M  V30 31 H -5.221415 -3.744982 2.429774 0
M  V30 32 H -4.594386 -2.610939 3.747824 0
M  V30 33 H -5.216529 -4.235472 4.135947 0
M  V30 34 H -0.848459 -4.832148 2.857370 0
M  V30 35 H 0.660348 -3.954524 1.039031 0
M  V30 36 H 3.395860 2.862393 0.227680 0
M  V30 37 H 1.660371 5.337121 1.652968 0
M  V30 38 H 1.876323 7.543401 3.037315 0
M  V30 39 H 2.108505 7.025583 4.753676 0
M  V30 40 H 3.478480 7.727971 3.821634 0
M  V30 41 H -0.836794 -0.280730 2.105790 0
M  V30 42 H 0.785929 -0.940187 2.494830 0
M  V30 43 H 0.406891 -2.727202 -5.186733 0
M  V30 44 H 1.430238 -4.006702 -4.348134 0
M  V30 45 H -1.582029 -3.478323 -4.339848 0
M  V30 46 H -0.753966 -5.058979 -4.278528 0
M  V30 47 H -1.774378 -4.014290 -1.990490 0
M  V30 48 H -0.151349 -4.873365 -2.046134 0
M  V30 49 H -2.599975 -1.462209 -0.330935 0
M  V30 50 H -4.001935 -2.396624 1.502254 0
M  V30 END ATOM
M  V30 BEGIN BOND
M  V30 1 1 1 2
M  V30 2 1 2 3
M  V30 3 2 3 4
M  V30 4 1 4 5
M  V30 5 2 5 6
M  V30 6 1 6 7
M  V30 7 2 7 8
M  V30 8 1 8 9
M  V30 9 2 9 10
M  V30 10 1 10 11
M  V30 11 1 11 12
M  V30 12 1 12 13
M  V30 13 1 13 14
M  V30 14 2 14 15
M  V30 15 1 14 16
M  V30 16 1 16 17
M  V30 17 1 17 18
M  V30 18 2 18 19
M  V30 19 1 19 20
M  V30 20 1 19 21
M  V30 21 1 21 22
M  V30 22 2 13 23
M  V30 23 1 23 24
M  V30 24 1 23 25
M  V30 25 1 9 26
M  V30 26 1 26 27
M  V30 27 1 27 28
M  V30 28 1 6 29
M  V30 29 2 29 30
M  V30 30 1 30 3
M  V30 31 1 25 7
M  V30 32 1 28 8
M  V30 33 2 25 11
M  V30 34 2 22 17
M  V30 35 1 1 31
M  V30 36 1 1 32
M  V30 37 1 1 33
M  V30 38 1 4 34
M  V30 39 1 5 35
M  V30 40 1 16 36
M  V30 41 1 18 37
M  V30 42 1 20 38
M  V30 43 1 20 39
M  V30 44 1 20 40
M  V30 45 1 24 41
M  V30 46 1 24 42
M  V30 47 1 26 43
M  V30 48 1 26 44
M  V30 49 1 27 45
M  V30 50 1 27 46
M  V30 51 1 28 47
M  V30 52 1 28 48
M  V30 53 1 29 49
M  V30 54 1 30 50
M  V30 END BOND
M  V30 END CTAB
M  END
>  <Dataset>  (453) 
ChEMBL_Kinases

>  <Ligand_Instance>  (453) 
nan

>  <PDB_ID>  (453) 
nan

>  <Standardized_SMILES>  (453) 
COc1ccc(-c2c3c(nc4sc(C(=O)Nc5cc(C)on5)c(N)c24)CCC3)cc1

>  <Name>  (453) 
nan

>  <Pocket>  (453) 
nan

>  <ATP_Site>  (453) 
nan

>  <Peripheral>  (453) 
nan

>  <Num_H_Atoms_ProtBoundConf>  (453) 
nan

>  <Num_Resolved_Atoms>  (453) 
nan

>  <Num_Not_Resolved_Atoms>  (453) 
nan

$$$$
CHEMBL1466376
     RDKit          3D

  0  0  0  0  0  0  0  0  0  0999 V3000
M  V30 BEGIN CTAB
M  V30 COUNTS 29 31 0 0 0
M  V30 BEGIN ATOM
M  V30 1 O -1.971632 -0.781825 2.263125 0
M  V30 2 C -0.978965 -1.289200 1.640992 0
M  V30 3 N 0.387640 -1.479510 2.036295 0
M  V30 4 C 1.203912 -1.227060 3.183672 0
M  V30 5 C 2.629124 -1.002925 2.726309 0
M  V30 6 S 2.705954 -2.313967 1.439166 0
M  V30 7 C 0.990781 -2.097698 0.893566 0
M  V30 8 N 0.156883 -2.275099 -0.070664 0
M  V30 9 C -1.147570 -1.804123 0.266020 0
M  V30 10 N -1.534724 -0.640459 -0.545185 0
M  V30 11 C -0.460235 0.287710 -0.424822 0
M  V30 12 C 0.607253 0.272710 -1.308863 0
M  V30 13 C 1.637518 1.207733 -1.145200 0
M  V30 14 C 1.536721 2.110944 -0.095937 0
M  V30 15 C 0.443837 2.086495 0.766500 0
M  V30 16 N -0.542320 1.183761 0.601557 0
M  V30 17 C -2.157097 -2.907798 0.152895 0
M  V30 18 F -2.210177 -3.287517 -1.172498 0
M  V30 19 F -1.718184 -3.971037 0.880300 0
M  V30 20 F -3.381408 -2.468979 0.627657 0
M  V30 21 H 0.905347 -0.248652 3.637612 0
M  V30 22 H 1.166655 -2.046826 3.929334 0
M  V30 23 H 2.726031 -0.028605 2.219854 0
M  V30 24 H 3.329011 -1.186423 3.543616 0
M  V30 25 H -2.438146 -0.556394 -1.089456 0
M  V30 26 H 0.646335 -0.440474 -2.104474 0
M  V30 27 H 2.488027 1.211083 -1.833163 0
M  V30 28 H 2.317461 2.843620 0.053912 0
M  V30 29 H 0.384864 2.798118 1.576577 0
M  V30 END ATOM
M  V30 BEGIN BOND
M  V30 1 2 1 2
M  V30 2 1 2 3
M  V30 3 1 3 4
M  V30 4 1 4 5
M  V30 5 1 5 6
M  V30 6 1 6 7
M  V30 7 2 7 8
M  V30 8 1 8 9
M  V30 9 1 9 10
M  V30 10 1 10 11
M  V30 11 2 11 12
M  V30 12 1 12 13
M  V30 13 2 13 14
M  V30 14 1 14 15
M  V30 15 2 15 16
M  V30 16 1 9 17
M  V30 17 1 17 18
M  V30 18 1 17 19
M  V30 19 1 17 20
M  V30 20 1 9 2
M  V30 21 1 16 11
M  V30 22 1 7 3
M  V30 23 1 4 21
M  V30 24 1 4 22
M  V30 25 1 5 23
M  V30 26 1 5 24
M  V30 27 1 10 25
M  V30 28 1 12 26
M  V30 29 1 13 27
M  V30 30 1 14 28
M  V30 31 1 15 29
M  V30 END BOND
M  V30 END CTAB
M  END
>  <Dataset>  (454) 
ChEMBL_Kinases

>  <Ligand_Instance>  (454) 
nan

>  <PDB_ID>  (454) 
nan

>  <Standardized_SMILES>  (454) 
O=C1N2CCSC2=NC1(Nc1ccccn1)C(F)(F)F

>  <Name>  (454) 
nan

>  <Pocket>  (454) 
nan

>  <ATP_Site>  (454) 
nan

>  <Peripheral>  (454) 
nan

>  <Num_H_Atoms_ProtBoundConf>  (454) 
nan

>  <Num_Resolved_Atoms>  (454) 
nan

>  <Num_Not_Resolved_Atoms>  (454) 
nan

$$$$
CHEMBL1466356
     RDKit          3D

  0  0  0  0  0  0  0  0  0  0999 V3000
M  V30 BEGIN CTAB
M  V30 COUNTS 34 35 0 0 0
M  V30 BEGIN ATOM
M  V30 1 C -0.731369 -2.856086 4.596159 0
M  V30 2 S 0.637611 -3.646190 3.812185 0
M  V30 3 C 0.673145 -3.741600 2.044296 0
M  V30 4 C 0.906889 -2.409208 1.415524 0
M  V30 5 C -0.186714 -1.447449 1.755757 0
M  V30 6 N 0.057645 -0.134911 1.145552 0
M  V30 7 C 0.116679 0.004627 -0.279487 0
M  V30 8 N -0.048036 -1.013925 -1.126736 0
M  V30 9 C -0.008666 -0.949401 -2.457404 0
M  V30 10 N 0.217062 0.243285 -3.032724 0
M  V30 11 C 0.401798 1.361578 -2.284369 0
M  V30 12 C 0.632315 2.577810 -2.869024 0
M  V30 13 C 0.819866 3.709302 -2.119831 0
M  V30 14 C 0.768215 3.581042 -0.746939 0
M  V30 15 Br 1.029590 5.158807 0.299947 0
M  V30 16 C 0.533757 2.341364 -0.179426 0
M  V30 17 C 0.344650 1.202584 -0.916564 0
M  V30 18 C -1.478206 -1.994145 1.236295 0
M  V30 19 O -2.205410 -3.033278 1.371412 0
M  V30 20 O -2.272861 -1.311747 0.321006 0
M  V30 21 H -1.016931 -3.508497 5.493755 0
M  V30 22 H -1.653294 -2.726987 4.017985 0
M  V30 23 H -0.515234 -1.874540 5.098754 0
M  V30 24 H -0.276460 -4.168872 1.601180 0
M  V30 25 H 1.505394 -4.414167 1.673395 0
M  V30 26 H 1.065778 -2.496826 0.307462 0
M  V30 27 H 1.885448 -2.038053 1.869014 0
M  V30 28 H -0.166346 -1.309191 2.841835 0
M  V30 29 H 0.181644 0.665051 1.778970 0
M  V30 30 H -0.162536 -1.872841 -3.009274 0
M  V30 31 H 0.668392 2.653987 -3.944330 0
M  V30 32 H 1.001505 4.667717 -2.583138 0
M  V30 33 H 0.515909 2.364465 0.883591 0
M  V30 34 H -3.242836 -1.127190 0.443415 0
M  V30 END ATOM
M  V30 BEGIN BOND
M  V30 1 1 1 2
M  V30 2 1 2 3
M  V30 3 1 3 4
M  V30 4 1 4 5
M  V30 5 1 5 6
M  V30 6 1 6 7
M  V30 7 2 7 8
M  V30 8 1 8 9
M  V30 9 2 9 10
M  V30 10 1 10 11
M  V30 11 2 11 12
M  V30 12 1 12 13
M  V30 13 2 13 14
M  V30 14 1 14 15
M  V30 15 1 14 16
M  V30 16 2 16 17
M  V30 17 1 5 18
M  V30 18 2 18 19
M  V30 19 1 18 20
M  V30 20 1 17 7
M  V30 21 1 17 11
M  V30 22 1 1 21
M  V30 23 1 1 22
M  V30 24 1 1 23
M  V30 25 1 3 24
M  V30 26 1 3 25
M  V30 27 1 4 26
M  V30 28 1 4 27
M  V30 29 1 5 28
M  V30 30 1 6 29
M  V30 31 1 9 30
M  V30 32 1 12 31
M  V30 33 1 13 32
M  V30 34 1 16 33
M  V30 35 1 20 34
M  V30 END BOND
M  V30 END CTAB
M  END
>  <Dataset>  (455) 
ChEMBL_Kinases

>  <Ligand_Instance>  (455) 
nan

>  <PDB_ID>  (455) 
nan

>  <Standardized_SMILES>  (455) 
CSCCC(Nc1ncnc2ccc(Br)cc12)C(=O)O

>  <Name>  (455) 
nan

>  <Pocket>  (455) 
nan

>  <ATP_Site>  (455) 
nan

>  <Peripheral>  (455) 
nan

>  <Num_H_Atoms_ProtBoundConf>  (455) 
nan

>  <Num_Resolved_Atoms>  (455) 
nan

>  <Num_Not_Resolved_Atoms>  (455) 
nan

$$$$
CHEMBL1464412
     RDKit          3D

  0  0  0  0  0  0  0  0  0  0999 V3000
M  V30 BEGIN CTAB
M  V30 COUNTS 32 34 0 0 0
M  V30 BEGIN ATOM
M  V30 1 O -1.499024 0.642881 3.646122 0
M  V30 2 C -0.313608 0.253567 3.484741 0
M  V30 3 C 0.854925 1.173720 3.722584 0
M  V30 4 S 1.255773 2.159414 2.274123 0
M  V30 5 C 1.838783 1.176627 0.898682 0
M  V30 6 N 2.988664 0.692815 0.395794 0
M  V30 7 C 2.638895 0.001874 -0.723785 0
M  V30 8 C 3.389029 -0.700815 -1.639947 0
M  V30 9 C 2.821997 -1.339129 -2.724786 0
M  V30 10 C 1.454653 -1.255566 -2.874239 0
M  V30 11 C 0.678288 -0.558820 -1.971858 0
M  V30 12 C 1.276750 0.073517 -0.889925 0
M  V30 13 O 0.823106 0.800239 0.122256 0
M  V30 14 N 0.008149 -1.062431 3.072199 0
M  V30 15 C -0.998869 -2.065803 2.799295 0
M  V30 16 C -1.915820 -1.695224 1.700160 0
M  V30 17 C -3.128720 -1.038057 1.570600 0
M  V30 18 C -3.509796 -0.992123 0.253850 0
M  V30 19 C -2.485737 -1.641845 -0.390466 0
M  V30 20 O -1.584894 -2.035587 0.456695 0
M  V30 21 H 1.722118 0.583938 4.115748 0
M  V30 22 H 0.610582 1.896038 4.538550 0
M  V30 23 H 4.458155 -0.739150 -1.481897 0
M  V30 24 H 3.389246 -1.896795 -3.456330 0
M  V30 25 H 0.879876 -1.704619 -3.671939 0
M  V30 26 H -0.387738 -0.436484 -2.001722 0
M  V30 27 H 1.018747 -1.359685 2.948065 0
M  V30 28 H -1.614012 -2.190326 3.736818 0
M  V30 29 H -0.560406 -3.059140 2.620342 0
M  V30 30 H -3.601250 -0.664101 2.468126 0
M  V30 31 H -4.397392 -0.546235 -0.124968 0
M  V30 32 H -2.412583 -1.816992 -1.465512 0
M  V30 END ATOM
M  V30 BEGIN BOND
M  V30 1 2 1 2
M  V30 2 1 2 3
M  V30 3 1 3 4
M  V30 4 1 4 5
M  V30 5 2 5 6
M  V30 6 1 6 7
M  V30 7 2 7 8
M  V30 8 1 8 9
M  V30 9 2 9 10
M  V30 10 1 10 11
M  V30 11 2 11 12
M  V30 12 1 12 13
M  V30 13 1 2 14
M  V30 14 1 14 15
M  V30 15 1 15 16
M  V30 16 2 16 17
M  V30 17 1 17 18
M  V30 18 2 18 19
M  V30 19 1 19 20
M  V30 20 1 13 5
M  V30 21 1 20 16
M  V30 22 1 12 7
M  V30 23 1 3 21
M  V30 24 1 3 22
M  V30 25 1 8 23
M  V30 26 1 9 24
M  V30 27 1 10 25
M  V30 28 1 11 26
M  V30 29 1 14 27
M  V30 30 1 15 28
M  V30 31 1 15 29
M  V30 32 1 17 30
M  V30 33 1 18 31
M  V30 34 1 19 32
M  V30 END BOND
M  V30 END CTAB
M  END
>  <Dataset>  (456) 
ChEMBL_Kinases

>  <Ligand_Instance>  (456) 
nan

>  <PDB_ID>  (456) 
nan

>  <Standardized_SMILES>  (456) 
O=C(CSc1nc2ccccc2o1)NCc1ccco1

>  <Name>  (456) 
nan

>  <Pocket>  (456) 
nan

>  <ATP_Site>  (456) 
nan

>  <Peripheral>  (456) 
nan

>  <Num_H_Atoms_ProtBoundConf>  (456) 
nan

>  <Num_Resolved_Atoms>  (456) 
nan

>  <Num_Not_Resolved_Atoms>  (456) 
nan

$$$$
CHEMBL1464602
     RDKit          3D

  0  0  0  0  0  0  0  0  0  0999 V3000
M  V30 BEGIN CTAB
M  V30 COUNTS 38 39 0 0 0
M  V30 BEGIN ATOM
M  V30 1 C -2.421979 -2.856846 5.286438 0
M  V30 2 C -1.701105 -2.993187 3.984717 0
M  V30 3 C -0.774175 -3.990242 3.770059 0
M  V30 4 C -0.144535 -4.048877 2.526743 0
M  V30 5 C -0.427650 -3.127769 1.498532 0
M  V30 6 O 0.316648 -3.443514 0.463086 0
M  V30 7 C 0.641351 -3.105355 -0.798693 0
M  V30 8 C 1.279268 -1.790202 -1.087430 0
M  V30 9 N 0.529418 -0.618530 -0.735353 0
M  V30 10 C 1.377702 0.491164 -1.104813 0
M  V30 11 O 2.501375 0.201021 -1.615442 0
M  V30 12 C 1.091870 1.917274 -0.958504 0
M  V30 13 C -0.067722 2.438047 -0.428745 0
M  V30 14 C -0.303183 3.790626 -0.306051 0
M  V30 15 C 0.646472 4.699431 -0.723703 0
M  V30 16 C 1.800200 4.166331 -1.250964 0
M  V30 17 C 2.061151 2.796398 -1.385374 0
M  V30 18 N 3.320293 2.421976 -1.958295 0
M  V30 19 C -1.367347 -2.189066 1.842312 0
M  V30 20 C -2.036432 -2.054162 3.035526 0
M  V30 21 H -1.844524 -3.312108 6.100078 0
M  V30 22 H -3.414424 -3.358451 5.195782 0
M  V30 23 H -2.617447 -1.796234 5.534965 0
M  V30 24 H -0.625890 -4.645274 4.614824 0
M  V30 25 H 0.548254 -4.891401 2.538911 0
M  V30 26 H -0.223686 -3.272525 -1.532289 0
M  V30 27 H 1.401464 -3.880680 -1.164253 0
M  V30 28 H 1.614796 -1.756259 -2.167861 0
M  V30 29 H 2.268706 -1.801669 -0.534921 0
M  V30 30 H -0.325007 -0.178965 -0.349288 0
M  V30 31 H -0.837267 1.759758 -0.089591 0
M  V30 32 H -1.240652 4.160947 0.121620 0
M  V30 33 H 0.525680 5.774139 -0.656146 0
M  V30 34 H 2.559716 4.866906 -1.585314 0
M  V30 35 H 4.076763 2.344314 -1.224384 0
M  V30 36 H 3.602792 2.222686 -2.930729 0
M  V30 37 H -1.568058 -1.514063 1.030766 0
M  V30 38 H -2.748117 -1.246774 3.125964 0
M  V30 END ATOM
M  V30 BEGIN BOND
M  V30 1 1 1 2
M  V30 2 2 2 3
M  V30 3 1 3 4
M  V30 4 2 4 5
M  V30 5 1 5 6
M  V30 6 1 6 7
M  V30 7 1 7 8
M  V30 8 1 8 9
M  V30 9 1 9 10
M  V30 10 2 10 11
M  V30 11 1 10 12
M  V30 12 2 12 13
M  V30 13 1 13 14
M  V30 14 2 14 15
M  V30 15 1 15 16
M  V30 16 2 16 17
M  V30 17 1 17 18
M  V30 18 1 5 19
M  V30 19 2 19 20
M  V30 20 1 20 2
M  V30 21 1 17 12
M  V30 22 1 1 21
M  V30 23 1 1 22
M  V30 24 1 1 23
M  V30 25 1 3 24
M  V30 26 1 4 25
M  V30 27 1 7 26
M  V30 28 1 7 27
M  V30 29 1 8 28
M  V30 30 1 8 29
M  V30 31 1 9 30
M  V30 32 1 13 31
M  V30 33 1 14 32
M  V30 34 1 15 33
M  V30 35 1 16 34
M  V30 36 1 18 35
M  V30 37 1 18 36
M  V30 38 1 19 37
M  V30 39 1 20 38
M  V30 END BOND
M  V30 END CTAB
M  END
>  <Dataset>  (457) 
ChEMBL_Kinases

>  <Ligand_Instance>  (457) 
nan

>  <PDB_ID>  (457) 
nan

>  <Standardized_SMILES>  (457) 
Cc1ccc(OCCNC(=O)c2ccccc2N)cc1

>  <Name>  (457) 
nan

>  <Pocket>  (457) 
nan

>  <ATP_Site>  (457) 
nan

>  <Peripheral>  (457) 
nan

>  <Num_H_Atoms_ProtBoundConf>  (457) 
nan

>  <Num_Resolved_Atoms>  (457) 
nan

>  <Num_Not_Resolved_Atoms>  (457) 
nan

$$$$
CHEMBL1464721
     RDKit          3D

  0  0  0  0  0  0  0  0  0  0999 V3000
M  V30 BEGIN CTAB
M  V30 COUNTS 33 35 0 0 0
M  V30 BEGIN ATOM
M  V30 1 O -0.740634 -2.883685 4.796879 0
M  V30 2 C 0.099991 -3.378042 4.032757 0
M  V30 3 O 0.368343 -4.751583 4.040483 0
M  V30 4 C 0.900078 -2.609963 3.052438 0
M  V30 5 C 1.824351 -3.173869 2.222988 0
M  V30 6 C 2.569578 -2.494225 1.306182 0
M  V30 7 C 2.349937 -1.120244 1.229567 0
M  V30 8 C 1.420587 -0.456571 2.041702 0
M  V30 9 N 1.240861 0.972685 1.915013 0
M  V30 10 C 0.530910 1.016240 0.663115 0
M  V30 11 C 1.134480 1.600649 -0.352148 0
M  V30 12 Cl 2.730336 2.315861 -0.241748 0
M  V30 13 C 0.533978 1.711428 -1.678190 0
M  V30 14 O 1.068702 2.266830 -2.697259 0
M  V30 15 C -0.793189 1.152376 -1.898430 0
M  V30 16 C -1.445402 1.206469 -3.134393 0
M  V30 17 C -2.700227 0.648292 -3.256556 0
M  V30 18 C -3.347900 0.034286 -2.207977 0
M  V30 19 C -2.746175 -0.053415 -0.940912 0
M  V30 20 C -1.496194 0.526474 -0.897557 0
M  V30 21 C -0.799402 0.472862 0.387485 0
M  V30 22 O -1.372867 -0.091335 1.381050 0
M  V30 23 C 0.708146 -1.240839 2.950228 0
M  V30 24 H -0.092587 -5.361982 4.714530 0
M  V30 25 H 1.967546 -4.243764 2.314561 0
M  V30 26 H 3.295325 -2.984513 0.670072 0
M  V30 27 H 2.942924 -0.588080 0.501450 0
M  V30 28 H 1.495930 1.809696 2.484959 0
M  V30 29 H -0.944260 1.687071 -3.953285 0
M  V30 30 H -3.190567 0.708319 -4.240971 0
M  V30 31 H -4.352210 -0.411878 -2.299389 0
M  V30 32 H -3.198250 -0.519989 -0.082192 0
M  V30 33 H -0.021156 -0.747629 3.610656 0
M  V30 END ATOM
M  V30 BEGIN BOND
M  V30 1 2 1 2
M  V30 2 1 2 3
M  V30 3 1 2 4
M  V30 4 2 4 5
M  V30 5 1 5 6
M  V30 6 2 6 7
M  V30 7 1 7 8
M  V30 8 1 8 9
M  V30 9 1 9 10
M  V30 10 2 10 11
M  V30 11 1 11 12
M  V30 12 1 11 13
M  V30 13 2 13 14
M  V30 14 1 13 15
M  V30 15 2 15 16
M  V30 16 1 16 17
M  V30 17 2 17 18
M  V30 18 1 18 19
M  V30 19 2 19 20
M  V30 20 1 20 21
M  V30 21 2 21 22
M  V30 22 2 8 23
M  V30 23 1 23 4
M  V30 24 1 21 10
M  V30 25 1 20 15
M  V30 26 1 3 24
M  V30 27 1 5 25
M  V30 28 1 6 26
M  V30 29 1 7 27
M  V30 30 1 9 28
M  V30 31 1 16 29
M  V30 32 1 17 30
M  V30 33 1 18 31
M  V30 34 1 19 32
M  V30 35 1 23 33
M  V30 END BOND
M  V30 END CTAB
M  END
>  <Dataset>  (458) 
ChEMBL_Kinases

>  <Ligand_Instance>  (458) 
nan

>  <PDB_ID>  (458) 
nan

>  <Standardized_SMILES>  (458) 
O=C(O)c1cccc(NC2=C(Cl)C(=O)c3ccccc3C2=O)c1

>  <Name>  (458) 
nan

>  <Pocket>  (458) 
nan

>  <ATP_Site>  (458) 
nan

>  <Peripheral>  (458) 
nan

>  <Num_H_Atoms_ProtBoundConf>  (458) 
nan

>  <Num_Resolved_Atoms>  (458) 
nan

>  <Num_Not_Resolved_Atoms>  (458) 
nan

$$$$
CHEMBL1464768
     RDKit          3D

  0  0  0  0  0  0  0  0  0  0999 V3000
M  V30 BEGIN CTAB
M  V30 COUNTS 31 32 0 0 0
M  V30 BEGIN ATOM
M  V30 1 O -0.181747 -0.533669 -0.004747 0
M  V30 2 C -0.094725 -0.372411 1.235297 0
M  V30 3 C -0.026445 -1.615217 2.032916 0
M  V30 4 C -0.075719 -2.849332 1.184850 0
M  V30 5 S 0.008583 -4.368336 2.171613 0
M  V30 6 C 0.707057 -5.652490 1.093443 0
M  V30 7 C 0.374679 -5.274206 -0.353694 0
M  V30 8 N 1.049391 -4.015098 -0.697884 0
M  V30 9 C 1.056851 -2.921786 0.214759 0
M  V30 10 O 2.027576 -2.097299 0.128222 0
M  V30 11 N -0.066709 0.921544 1.793579 0
M  V30 12 C -0.126104 2.159948 1.119968 0
M  V30 13 C -0.082896 3.312025 1.872594 0
M  V30 14 C -0.134285 4.569941 1.313652 0
M  V30 15 C -0.233248 4.746262 -0.050094 0
M  V30 16 Cl -0.294837 6.364490 -0.705698 0
M  V30 17 C -0.278567 3.610308 -0.830216 0
M  V30 18 Cl -0.403906 3.774451 -2.564823 0
M  V30 19 C -0.224547 2.372385 -0.231856 0
M  V30 20 H 0.867095 -1.666072 2.681569 0
M  V30 21 H -0.892556 -1.678321 2.724466 0
M  V30 22 H -1.016055 -2.922245 0.601163 0
M  V30 23 H 1.810507 -5.708838 1.173535 0
M  V30 24 H 0.242522 -6.622486 1.296599 0
M  V30 25 H -0.725067 -5.155685 -0.459194 0
M  V30 26 H 0.695618 -6.053105 -1.057617 0
M  V30 27 H 1.528519 -3.936031 -1.634295 0
M  V30 28 H 0.007474 0.895467 2.829771 0
M  V30 29 H -0.004374 3.234619 2.962485 0
M  V30 30 H -0.095402 5.412883 1.966169 0
M  V30 31 H -0.264045 1.543992 -0.891069 0
M  V30 END ATOM
M  V30 BEGIN BOND
M  V30 1 2 1 2
M  V30 2 1 2 3
M  V30 3 1 3 4
M  V30 4 1 4 5
M  V30 5 1 5 6
M  V30 6 1 6 7
M  V30 7 1 7 8
M  V30 8 1 8 9
M  V30 9 2 9 10
M  V30 10 1 2 11
M  V30 11 1 11 12
M  V30 12 2 12 13
M  V30 13 1 13 14
M  V30 14 2 14 15
M  V30 15 1 15 16
M  V30 16 1 15 17
M  V30 17 1 17 18
M  V30 18 2 17 19
M  V30 19 1 9 4
M  V30 20 1 19 12
M  V30 21 1 3 20
M  V30 22 1 3 21
M  V30 23 1 4 22
M  V30 24 1 6 23
M  V30 25 1 6 24
M  V30 26 1 7 25
M  V30 27 1 7 26
M  V30 28 1 8 27
M  V30 29 1 11 28
M  V30 30 1 13 29
M  V30 31 1 14 30
M  V30 32 1 19 31
M  V30 END BOND
M  V30 END CTAB
M  END
>  <Dataset>  (459) 
ChEMBL_Kinases

>  <Ligand_Instance>  (459) 
nan

>  <PDB_ID>  (459) 
nan

>  <Standardized_SMILES>  (459) 
O=C(CC1SCCNC1=O)Nc1ccc(Cl)c(Cl)c1

>  <Name>  (459) 
nan

>  <Pocket>  (459) 
nan

>  <ATP_Site>  (459) 
nan

>  <Peripheral>  (459) 
nan

>  <Num_H_Atoms_ProtBoundConf>  (459) 
nan

>  <Num_Resolved_Atoms>  (459) 
nan

>  <Num_Not_Resolved_Atoms>  (459) 
nan

$$$$
CHEMBL1464843
     RDKit          3D

  0  0  0  0  0  0  0  0  0  0999 V3000
M  V30 BEGIN CTAB
M  V30 COUNTS 46 46 0 0 0
M  V30 BEGIN ATOM
M  V30 1 C -1.888899 -2.560983 2.211085 0
M  V30 2 C -1.111239 -3.795191 1.853272 0
M  V30 3 C -2.024077 -4.929579 1.419184 0
M  V30 4 C 0.038165 -3.593474 0.942363 0
M  V30 5 C -0.213045 -3.034905 -0.401945 0 CFG=2
M  V30 6 N -0.812133 -1.722002 -0.444316 0
M  V30 7 C -0.023999 -0.636590 -0.979628 0
M  V30 8 O 1.150318 -0.806268 -1.401719 0
M  V30 9 N -0.467765 0.731960 -1.094247 0
M  V30 10 C 0.362556 1.756145 -1.632067 0
M  V30 11 C 1.639974 2.019932 -0.917646 0
M  V30 12 C 1.477581 2.454526 0.502457 0
M  V30 13 C 1.954533 3.658498 0.899481 0
M  V30 14 C 1.788659 4.094715 2.335822 0
M  V30 15 C 2.267761 2.977023 3.251099 0
M  V30 16 C 1.924217 1.621837 2.720127 0
M  V30 17 C 0.847844 1.780330 1.669088 0
M  V30 18 C -0.913446 -3.985160 -1.319717 0
M  V30 19 O -1.898323 -3.833936 -2.089735 0
M  V30 20 O -0.426773 -5.285669 -1.368214 0
M  V30 21 H -1.207125 -1.691791 2.132798 0
M  V30 22 H -2.187248 -2.613365 3.281363 0
M  V30 23 H -2.829237 -2.463250 1.633962 0
M  V30 24 H -0.662031 -4.173210 2.821823 0
M  V30 25 H -2.756675 -4.624740 0.644092 0
M  V30 26 H -1.444964 -5.828035 1.127369 0
M  V30 27 H -2.637937 -5.280833 2.295395 0
M  V30 28 H 0.573297 -4.560369 0.854782 0
M  V30 29 H 0.748184 -2.899391 1.464656 0
M  V30 30 H 0.810105 -2.918043 -0.873558 0
M  V30 31 H -1.742830 -1.350646 -0.164201 0
M  V30 32 H -1.446441 0.930886 -0.755400 0
M  V30 33 H 0.612047 1.467289 -2.669661 0
M  V30 34 H -0.214743 2.701388 -1.699727 0
M  V30 35 H 2.157492 2.836006 -1.443687 0
M  V30 36 H 2.332340 1.152016 -0.955671 0
M  V30 37 H 2.458355 4.327689 0.208497 0
M  V30 38 H 0.743056 4.372391 2.552343 0
M  V30 39 H 2.427164 4.963949 2.518600 0
M  V30 40 H 1.803317 3.118288 4.252424 0
M  V30 41 H 3.383445 3.078299 3.313069 0
M  V30 42 H 2.799315 1.103780 2.276249 0
M  V30 43 H 1.561444 0.924356 3.531182 0
M  V30 44 H 0.314096 0.863604 1.451582 0
M  V30 45 H 0.095246 2.486746 2.128313 0
M  V30 46 H -0.473284 -5.880690 -2.193437 0
M  V30 END ATOM
M  V30 BEGIN BOND
M  V30 1 1 1 2
M  V30 2 1 2 3
M  V30 3 1 2 4
M  V30 4 1 4 5
M  V30 5 1 5 6
M  V30 6 1 6 7
M  V30 7 2 7 8
M  V30 8 1 7 9
M  V30 9 1 9 10
M  V30 10 1 10 11
M  V30 11 1 11 12
M  V30 12 2 12 13
M  V30 13 1 13 14
M  V30 14 1 14 15
M  V30 15 1 15 16
M  V30 16 1 16 17
M  V30 17 1 5 18
M  V30 18 2 18 19
M  V30 19 1 18 20
M  V30 20 1 17 12
M  V30 21 1 1 21
M  V30 22 1 1 22
M  V30 23 1 1 23
M  V30 24 1 2 24
M  V30 25 1 3 25
M  V30 26 1 3 26
M  V30 27 1 3 27
M  V30 28 1 4 28
M  V30 29 1 4 29
M  V30 30 1 5 30 CFG=3
M  V30 31 1 6 31
M  V30 32 1 9 32
M  V30 33 1 10 33
M  V30 34 1 10 34
M  V30 35 1 11 35
M  V30 36 1 11 36
M  V30 37 1 13 37
M  V30 38 1 14 38
M  V30 39 1 14 39
M  V30 40 1 15 40
M  V30 41 1 15 41
M  V30 42 1 16 42
M  V30 43 1 16 43
M  V30 44 1 17 44
M  V30 45 1 17 45
M  V30 46 1 20 46
M  V30 END BOND
M  V30 END CTAB
M  END
>  <Dataset>  (460) 
ChEMBL_Kinases

>  <Ligand_Instance>  (460) 
nan

>  <PDB_ID>  (460) 
nan

>  <Standardized_SMILES>  (460) 
CC(C)C[C@H](NC(=O)NCCC1=CCCCC1)C(=O)O

>  <Name>  (460) 
nan

>  <Pocket>  (460) 
nan

>  <ATP_Site>  (460) 
nan

>  <Peripheral>  (460) 
nan

>  <Num_H_Atoms_ProtBoundConf>  (460) 
nan

>  <Num_Resolved_Atoms>  (460) 
nan

>  <Num_Not_Resolved_Atoms>  (460) 
nan

$$$$
CHEMBL1464983
     RDKit          3D

  0  0  0  0  0  0  0  0  0  0999 V3000
M  V30 BEGIN CTAB
M  V30 COUNTS 44 46 0 0 0
M  V30 BEGIN ATOM
M  V30 1 C 1.599207 -7.530918 -0.200682 0
M  V30 2 O 0.595257 -6.633115 -0.562472 0
M  V30 3 C 0.625124 -5.272094 -0.201124 0
M  V30 4 C 1.722146 -4.884902 0.539870 0
M  V30 5 C 1.744075 -3.548052 0.890455 0
M  V30 6 C 0.737460 -2.643984 0.528674 0
M  V30 7 C 0.869830 -1.236335 0.961881 0
M  V30 8 C 1.594063 -0.362595 0.001101 0
M  V30 9 N 1.651031 0.977200 0.549869 0
M  V30 10 C 0.553513 1.805110 0.877425 0
M  V30 11 O -0.591654 1.324330 0.667257 0
M  V30 12 C 0.662176 3.150334 1.430834 0
M  V30 13 C 1.893919 3.708159 1.673610 0
M  V30 14 C 1.567359 4.979571 2.191767 0
M  V30 15 S 2.196108 6.583288 2.857018 0
M  V30 16 C 0.462875 7.310263 3.135924 0
M  V30 17 C -0.352259 6.300741 2.712450 0
M  V30 18 C 0.150620 5.127341 2.236514 0
M  V30 19 N -0.339874 3.977542 1.759099 0
M  V30 20 C -1.735174 3.584766 1.582248 0
M  V30 21 C -0.304272 -3.149831 -0.209877 0
M  V30 22 C -0.412426 -4.463749 -0.605220 0
M  V30 23 O -1.463098 -4.940739 -1.341715 0
M  V30 24 C -2.509489 -4.081001 -1.737992 0
M  V30 25 H 1.695903 -7.618958 0.881146 0
M  V30 26 H 1.413477 -8.479848 -0.721580 0
M  V30 27 H 2.566651 -7.115580 -0.585918 0
M  V30 28 H 2.499669 -5.567903 0.823183 0
M  V30 29 H 2.591261 -3.170620 1.482503 0
M  V30 30 H -0.145692 -0.881522 1.209544 0
M  V30 31 H 1.440801 -1.231673 1.913827 0
M  V30 32 H 2.627071 -0.704493 -0.192901 0
M  V30 33 H 1.116995 -0.279305 -0.992319 0
M  V30 34 H 2.596397 1.424649 0.742713 0
M  V30 35 H 2.915523 3.446537 1.577701 0
M  V30 36 H 0.441796 8.275073 3.531663 0
M  V30 37 H -1.377518 6.601041 2.824188 0
M  V30 38 H -2.397131 4.375469 2.017246 0
M  V30 39 H -1.958013 2.607738 2.063538 0
M  V30 40 H -2.027425 3.512693 0.514753 0
M  V30 41 H -1.067941 -2.429295 -0.475580 0
M  V30 42 H -3.175874 -4.548932 -2.490224 0
M  V30 43 H -3.189808 -3.822871 -0.882242 0
M  V30 44 H -2.084770 -3.144347 -2.100567 0
M  V30 END ATOM
M  V30 BEGIN BOND
M  V30 1 1 1 2
M  V30 2 1 2 3
M  V30 3 2 3 4
M  V30 4 1 4 5
M  V30 5 2 5 6
M  V30 6 1 6 7
M  V30 7 1 7 8
M  V30 8 1 8 9
M  V30 9 1 9 10
M  V30 10 2 10 11
M  V30 11 1 10 12
M  V30 12 2 12 13
M  V30 13 1 13 14
M  V30 14 1 14 15
M  V30 15 1 15 16
M  V30 16 2 16 17
M  V30 17 1 17 18
M  V30 18 1 18 19
M  V30 19 1 19 20
M  V30 20 1 6 21
M  V30 21 2 21 22
M  V30 22 1 22 23
M  V30 23 1 23 24
M  V30 24 1 22 3
M  V30 25 1 19 12
M  V30 26 2 18 14
M  V30 27 1 1 25
M  V30 28 1 1 26
M  V30 29 1 1 27
M  V30 30 1 4 28
M  V30 31 1 5 29
M  V30 32 1 7 30
M  V30 33 1 7 31
M  V30 34 1 8 32
M  V30 35 1 8 33
M  V30 36 1 9 34
M  V30 37 1 13 35
M  V30 38 1 16 36
M  V30 39 1 17 37
M  V30 40 1 20 38
M  V30 41 1 20 39
M  V30 42 1 20 40
M  V30 43 1 21 41
M  V30 44 1 24 42
M  V30 45 1 24 43
M  V30 46 1 24 44
M  V30 END BOND
M  V30 END CTAB
M  END
>  <Dataset>  (461) 
ChEMBL_Kinases

>  <Ligand_Instance>  (461) 
nan

>  <PDB_ID>  (461) 
nan

>  <Standardized_SMILES>  (461) 
COc1ccc(CCNC(=O)c2cc3sccc3n2C)cc1OC

>  <Name>  (461) 
nan

>  <Pocket>  (461) 
nan

>  <ATP_Site>  (461) 
nan

>  <Peripheral>  (461) 
nan

>  <Num_H_Atoms_ProtBoundConf>  (461) 
nan

>  <Num_Resolved_Atoms>  (461) 
nan

>  <Num_Not_Resolved_Atoms>  (461) 
nan

$$$$
CHEMBL1464985
     RDKit          3D

  0  0  0  0  0  0  0  0  0  0999 V3000
M  V30 BEGIN CTAB
M  V30 COUNTS 61 64 0 0 0
M  V30 BEGIN ATOM
M  V30 1 C 0.051321 -0.358608 6.897262 0
M  V30 2 O 0.097024 0.995242 6.483708 0
M  V30 3 C 0.617961 1.380269 5.258743 0
M  V30 4 C 1.107155 0.386333 4.425436 0
M  V30 5 C 1.637263 0.743689 3.185321 0
M  V30 6 C 1.658451 2.095595 2.821401 0
M  V30 7 C 2.223115 2.387064 1.486569 0
M  V30 8 C 1.183975 2.376102 0.396653 0
M  V30 9 N 0.514822 1.093392 0.290151 0
M  V30 10 C -0.625845 0.765271 0.972008 0
M  V30 11 C -1.386804 1.659059 1.918359 0
M  V30 12 C -1.008855 -0.524417 0.666806 0
M  V30 13 C -0.031649 -0.914044 -0.221688 0
M  V30 14 C -0.139337 -2.253437 -0.759918 0
M  V30 15 O -0.959089 -3.183343 -0.569949 0
M  V30 16 C 0.330431 -3.326011 -1.614212 0
M  V30 17 S -0.703289 -4.809447 -1.516161 0
M  V30 18 C -2.338304 -4.512871 -2.171573 0
M  V30 19 N -3.348320 -4.065360 -1.398498 0
M  V30 20 N -4.402087 -3.954694 -2.178326 0
M  V30 21 N -4.119603 -4.310122 -3.419802 0
M  V30 22 N -2.842377 -4.655926 -3.417901 0
M  V30 23 C -2.015533 -5.118234 -4.474143 0
M  V30 24 C -1.780755 -6.493186 -4.356862 0
M  V30 25 C -0.999674 -7.165634 -5.277211 0
M  V30 26 C -0.428748 -6.487563 -6.342702 0
M  V30 27 C -0.670605 -5.124534 -6.445339 0
M  V30 28 C -1.445987 -4.440921 -5.537123 0
M  V30 29 C 0.908785 0.061847 -0.464465 0
M  V30 30 C 2.069803 -0.058717 -1.365790 0
M  V30 31 C 1.160898 3.051389 3.683049 0
M  V30 32 C 0.633319 2.715099 4.912345 0
M  V30 33 O 0.123087 3.613439 5.814787 0
M  V30 34 C 0.061820 5.013652 5.647063 0
M  V30 35 H 1.081666 -0.744374 6.814148 0
M  V30 36 H -0.632039 -0.972696 6.289688 0
M  V30 37 H -0.317729 -0.342928 7.958589 0
M  V30 38 H 1.086293 -0.652838 4.714436 0
M  V30 39 H 2.016155 -0.036115 2.541856 0
M  V30 40 H 2.633545 3.416664 1.534699 0
M  V30 41 H 3.058050 1.710964 1.301448 0
M  V30 42 H 1.711344 2.545020 -0.560031 0
M  V30 43 H 0.474009 3.191348 0.566883 0
M  V30 44 H -1.156280 1.453586 2.968484 0
M  V30 45 H -1.228218 2.704849 1.653696 0
M  V30 46 H -2.475030 1.460228 1.685255 0
M  V30 47 H -1.878910 -1.014238 1.078843 0
M  V30 48 H 0.336752 -3.049094 -2.710547 0
M  V30 49 H 1.368277 -3.596493 -1.341685 0
M  V30 50 H -2.160545 -7.143650 -3.580948 0
M  V30 51 H -0.783828 -8.215133 -5.242316 0
M  V30 52 H 0.189633 -6.975641 -7.085857 0
M  V30 53 H -0.248721 -4.526264 -7.264927 0
M  V30 54 H -1.689347 -3.402605 -5.527818 0
M  V30 55 H 2.994747 -0.321162 -0.821282 0
M  V30 56 H 1.913346 -0.871588 -2.111984 0
M  V30 57 H 2.261626 0.859329 -1.965089 0
M  V30 58 H 1.186904 4.089729 3.383306 0
M  V30 59 H 0.847495 5.347873 4.949511 0
M  V30 60 H -0.955341 5.286887 5.274779 0
M  V30 61 H 0.205961 5.557353 6.604293 0
M  V30 END ATOM
M  V30 BEGIN BOND
M  V30 1 1 1 2
M  V30 2 1 2 3
M  V30 3 2 3 4
M  V30 4 1 4 5
M  V30 5 2 5 6
M  V30 6 1 6 7
M  V30 7 1 7 8
M  V30 8 1 8 9
M  V30 9 1 9 10
M  V30 10 1 10 11
M  V30 11 2 10 12
M  V30 12 1 12 13
M  V30 13 1 13 14
M  V30 14 2 14 15
M  V30 15 1 14 16
M  V30 16 1 16 17
M  V30 17 1 17 18
M  V30 18 2 18 19
M  V30 19 1 19 20
M  V30 20 2 20 21
M  V30 21 1 21 22
M  V30 22 1 22 23
M  V30 23 2 23 24
M  V30 24 1 24 25
M  V30 25 2 25 26
M  V30 26 1 26 27
M  V30 27 2 27 28
M  V30 28 2 13 29
M  V30 29 1 29 30
M  V30 30 1 6 31
M  V30 31 2 31 32
M  V30 32 1 32 33
M  V30 33 1 33 34
M  V30 34 1 32 3
M  V30 35 1 29 9
M  V30 36 1 22 18
M  V30 37 1 28 23
M  V30 38 1 1 35
M  V30 39 1 1 36
M  V30 40 1 1 37
M  V30 41 1 4 38
M  V30 42 1 5 39
M  V30 43 1 7 40
M  V30 44 1 7 41
M  V30 45 1 8 42
M  V30 46 1 8 43
M  V30 47 1 11 44
M  V30 48 1 11 45
M  V30 49 1 11 46
M  V30 50 1 12 47
M  V30 51 1 16 48
M  V30 52 1 16 49
M  V30 53 1 24 50
M  V30 54 1 25 51
M  V30 55 1 26 52
M  V30 56 1 27 53
M  V30 57 1 28 54
M  V30 58 1 30 55
M  V30 59 1 30 56
M  V30 60 1 30 57
M  V30 61 1 31 58
M  V30 62 1 34 59
M  V30 63 1 34 60
M  V30 64 1 34 61
M  V30 END BOND
M  V30 END CTAB
M  END
>  <Dataset>  (462) 
ChEMBL_Kinases

>  <Ligand_Instance>  (462) 
nan

>  <PDB_ID>  (462) 
nan

>  <Standardized_SMILES>  (462) 
COc1ccc(CCn2c(C)cc(C(=O)CSc3nnnn3-c3ccccc3)c2C)cc1OC

>  <Name>  (462) 
nan

>  <Pocket>  (462) 
nan

>  <ATP_Site>  (462) 
nan

>  <Peripheral>  (462) 
nan

>  <Num_H_Atoms_ProtBoundConf>  (462) 
nan

>  <Num_Resolved_Atoms>  (462) 
nan

>  <Num_Not_Resolved_Atoms>  (462) 
nan

$$$$
CHEMBL1465162
     RDKit          3D

  0  0  0  0  0  0  0  0  0  0999 V3000
M  V30 BEGIN CTAB
M  V30 COUNTS 52 54 0 0 0
M  V30 BEGIN ATOM
M  V30 1 C -0.993431 -0.597371 4.099133 0
M  V30 2 O -0.335798 0.254369 3.175198 0
M  V30 3 C 1.051778 0.113294 2.997453 0
M  V30 4 O 1.261705 -0.820348 3.807475 0
M  V30 5 C 1.858333 0.910635 2.087935 0
M  V30 6 C 3.202613 0.600612 2.108931 0
M  V30 7 C 4.001875 1.347800 1.263534 0
M  V30 8 O 5.364726 1.102562 1.220516 0
M  V30 9 C 5.895120 0.069056 2.063982 0
M  V30 10 C 3.470679 2.332560 0.461609 0
M  V30 11 O 4.334027 3.041184 -0.361474 0
M  V30 12 C 3.857236 4.065223 -1.211936 0
M  V30 13 C 2.122846 2.616995 0.464938 0
M  V30 14 C 1.326943 1.894334 1.286716 0
M  V30 15 N -0.079870 2.052874 1.412020 0
M  V30 16 C -0.602657 1.186454 0.380775 0
M  V30 17 O 0.302514 0.581501 -0.291399 0
M  V30 18 C -2.014361 0.884166 -0.025654 0
M  V30 19 S -2.477503 -0.642639 0.776871 0
M  V30 20 C -4.118334 -1.194493 0.407311 0
M  V30 21 N -5.364861 -1.054561 0.892168 0
M  V30 22 N -6.228811 -1.723657 0.166799 0
M  V30 23 N -5.546028 -2.305155 -0.798426 0
M  V30 24 N -4.256726 -2.005566 -0.684814 0
M  V30 25 C -3.322276 -2.539693 -1.653421 0
M  V30 26 C -2.753160 -3.853888 -1.265523 0
M  V30 27 C -3.383414 -5.043159 -1.571926 0
M  V30 28 C -2.753940 -6.211527 -1.167333 0
M  V30 29 C -1.569838 -6.298530 -0.494602 0
M  V30 30 C -0.934547 -5.095216 -0.185855 0
M  V30 31 C -1.540077 -3.908842 -0.577332 0
M  V30 32 H -2.052562 -0.376781 4.203272 0
M  V30 33 H -0.531414 -0.483841 5.108072 0
M  V30 34 H -0.889708 -1.669153 3.806132 0
M  V30 35 H 3.635980 -0.171669 2.733311 0
M  V30 36 H 5.493733 -0.913432 1.694496 0
M  V30 37 H 7.007182 0.064181 2.025234 0
M  V30 38 H 5.599381 0.309808 3.095066 0
M  V30 39 H 3.252781 3.574529 -2.005096 0
M  V30 40 H 3.261354 4.765546 -0.623361 0
M  V30 41 H 4.685584 4.651010 -1.658718 0
M  V30 42 H 1.673296 3.366931 -0.136935 0
M  V30 43 H -0.846532 2.527280 1.930543 0
M  V30 44 H -2.684480 1.740036 0.209256 0
M  V30 45 H -2.021927 0.758879 -1.114272 0
M  V30 46 H -3.766922 -2.569728 -2.661367 0
M  V30 47 H -2.503167 -1.756458 -1.708275 0
M  V30 48 H -4.330382 -5.048053 -2.106217 0
M  V30 49 H -3.288061 -7.120604 -1.429201 0
M  V30 50 H -1.115042 -7.224927 -0.197803 0
M  V30 51 H 0.012724 -5.076411 0.347666 0
M  V30 52 H -1.002236 -3.002663 -0.311781 0
M  V30 END ATOM
M  V30 BEGIN BOND
M  V30 1 1 1 2
M  V30 2 1 2 3
M  V30 3 2 3 4
M  V30 4 1 3 5
M  V30 5 2 5 6
M  V30 6 1 6 7
M  V30 7 1 7 8
M  V30 8 1 8 9
M  V30 9 2 7 10
M  V30 10 1 10 11
M  V30 11 1 11 12
M  V30 12 1 10 13
M  V30 13 2 13 14
M  V30 14 1 14 15
M  V30 15 1 15 16
M  V30 16 2 16 17
M  V30 17 1 16 18
M  V30 18 1 18 19
M  V30 19 1 19 20
M  V30 20 2 20 21
M  V30 21 1 21 22
M  V30 22 2 22 23
M  V30 23 1 23 24
M  V30 24 1 24 25
M  V30 25 1 25 26
M  V30 26 2 26 27
M  V30 27 1 27 28
M  V30 28 2 28 29
M  V30 29 1 29 30
M  V30 30 2 30 31
M  V30 31 1 14 5
M  V30 32 1 24 20
M  V30 33 1 31 26
M  V30 34 1 1 32
M  V30 35 1 1 33
M  V30 36 1 1 34
M  V30 37 1 6 35
M  V30 38 1 9 36
M  V30 39 1 9 37
M  V30 40 1 9 38
M  V30 41 1 12 39
M  V30 42 1 12 40
M  V30 43 1 12 41
M  V30 44 1 13 42
M  V30 45 1 15 43
M  V30 46 1 18 44
M  V30 47 1 18 45
M  V30 48 1 25 46
M  V30 49 1 25 47
M  V30 50 1 27 48
M  V30 51 1 28 49
M  V30 52 1 29 50
M  V30 53 1 30 51
M  V30 54 1 31 52
M  V30 END BOND
M  V30 END CTAB
M  END
>  <Dataset>  (463) 
ChEMBL_Kinases

>  <Ligand_Instance>  (463) 
nan

>  <PDB_ID>  (463) 
nan

>  <Standardized_SMILES>  (463) 
COC(=O)c1cc(OC)c(OC)cc1NC(=O)CSc1nnnn1Cc1ccccc1

>  <Name>  (463) 
nan

>  <Pocket>  (463) 
nan

>  <ATP_Site>  (463) 
nan

>  <Peripheral>  (463) 
nan

>  <Num_H_Atoms_ProtBoundConf>  (463) 
nan

>  <Num_Resolved_Atoms>  (463) 
nan

>  <Num_Not_Resolved_Atoms>  (463) 
nan

$$$$
CHEMBL1466116
     RDKit          3D

  0  0  0  0  0  0  0  0  0  0999 V3000
M  V30 BEGIN CTAB
M  V30 COUNTS 38 40 0 0 0
M  V30 BEGIN ATOM
M  V30 1 O -1.419691 -1.759826 1.318516 0
M  V30 2 C -0.981171 -1.665307 0.146373 0
M  V30 3 C -0.387340 -2.731298 -0.690842 0
M  V30 4 C 0.984781 -3.108124 -0.350311 0
M  V30 5 C 1.530110 -4.037161 0.501984 0
M  V30 6 C 2.891444 -4.200491 0.624339 0
M  V30 7 C 3.785502 -3.438884 -0.103734 0
M  V30 8 C 3.271924 -2.475426 -0.987281 0
M  V30 9 C 1.907340 -2.342467 -1.080943 0
M  V30 10 O -1.241787 -0.408609 0.021090 0
M  V30 11 C -1.502152 0.815722 -0.085481 0
M  V30 12 C -2.387658 1.246345 -1.059424 0
M  V30 13 C -2.693927 2.609488 -1.203735 0
M  V30 14 C -2.080644 3.504208 -0.341203 0
M  V30 15 C -1.197467 3.163807 0.643936 0
M  V30 16 C -0.951737 1.803637 0.720471 0
M  V30 17 N -0.077057 1.320154 1.743282 0
M  V30 18 C 1.258314 0.987542 2.088010 0
M  V30 19 O 2.071822 1.639105 1.341543 0
M  V30 20 C 1.218664 -0.006805 3.201293 0
M  V30 21 C -0.040246 0.359089 3.924436 0
M  V30 22 C -0.906158 1.060944 2.910690 0
M  V30 23 O -2.109253 1.243034 3.323213 0
M  V30 24 H -0.990361 -3.693268 -0.591476 0
M  V30 25 H -0.494663 -2.464763 -1.755457 0
M  V30 26 H 0.755087 -4.589081 1.032093 0
M  V30 27 H 3.238729 -4.954020 1.320956 0
M  V30 28 H 4.867409 -3.574927 0.007451 0
M  V30 29 H 4.028389 -1.919269 -1.515050 0
M  V30 30 H 1.680899 -1.563883 -1.796047 0
M  V30 31 H -2.867927 0.553858 -1.730163 0
M  V30 32 H -3.399947 2.952006 -1.981751 0
M  V30 33 H -2.336061 4.540574 -0.481253 0
M  V30 34 H -0.721924 3.855432 1.312527 0
M  V30 35 H 2.116711 0.028428 3.853038 0
M  V30 36 H 1.071812 -1.011390 2.736150 0
M  V30 37 H -0.579876 -0.570658 4.275110 0
M  V30 38 H 0.162831 1.011154 4.789831 0
M  V30 END ATOM
M  V30 BEGIN BOND
M  V30 1 2 1 2
M  V30 2 1 2 3
M  V30 3 1 3 4
M  V30 4 2 4 5
M  V30 5 1 5 6
M  V30 6 2 6 7
M  V30 7 1 7 8
M  V30 8 2 8 9
M  V30 9 1 2 10
M  V30 10 1 10 11
M  V30 11 2 11 12
M  V30 12 1 12 13
M  V30 13 2 13 14
M  V30 14 1 14 15
M  V30 15 2 15 16
M  V30 16 1 16 17
M  V30 17 1 17 18
M  V30 18 2 18 19
M  V30 19 1 18 20
M  V30 20 1 20 21
M  V30 21 1 21 22
M  V30 22 2 22 23
M  V30 23 1 9 4
M  V30 24 1 16 11
M  V30 25 1 22 17
M  V30 26 1 3 24
M  V30 27 1 3 25
M  V30 28 1 5 26
M  V30 29 1 6 27
M  V30 30 1 7 28
M  V30 31 1 8 29
M  V30 32 1 9 30
M  V30 33 1 12 31
M  V30 34 1 13 32
M  V30 35 1 14 33
M  V30 36 1 15 34
M  V30 37 1 20 35
M  V30 38 1 20 36
M  V30 39 1 21 37
M  V30 40 1 21 38
M  V30 END BOND
M  V30 END CTAB
M  END
>  <Dataset>  (464) 
ChEMBL_Kinases

>  <Ligand_Instance>  (464) 
nan

>  <PDB_ID>  (464) 
nan

>  <Standardized_SMILES>  (464) 
O=C(Cc1ccccc1)Oc1ccccc1N1C(=O)CCC1=O

>  <Name>  (464) 
nan

>  <Pocket>  (464) 
nan

>  <ATP_Site>  (464) 
nan

>  <Peripheral>  (464) 
nan

>  <Num_H_Atoms_ProtBoundConf>  (464) 
nan

>  <Num_Resolved_Atoms>  (464) 
nan

>  <Num_Not_Resolved_Atoms>  (464) 
nan

$$$$
CHEMBL1465356
     RDKit          3D

  0  0  0  0  0  0  0  0  0  0999 V3000
M  V30 BEGIN CTAB
M  V30 COUNTS 46 49 0 0 0
M  V30 BEGIN ATOM
M  V30 1 C -2.444916 -1.941243 4.188793 0
M  V30 2 C -1.345006 -1.360016 3.390985 0
M  V30 3 C -0.171826 -0.873876 3.851947 0
M  V30 4 C 0.541173 -0.438622 2.758656 0
M  V30 5 C 1.858536 0.150726 2.879675 0
M  V30 6 O 2.337050 0.242878 4.074707 0
M  V30 7 C 2.998725 0.745433 2.185555 0
M  V30 8 O 2.766479 0.766441 0.789143 0
M  V30 9 C 3.756949 1.302151 -0.022919 0
M  V30 10 C 4.948313 1.807227 0.507827 0
M  V30 11 C 5.944241 2.344472 -0.293464 0
M  V30 12 C 5.689950 2.352222 -1.657533 0
M  V30 13 C 6.727193 2.910713 -2.481458 0
M  V30 14 N 7.570383 3.384017 -3.150822 0
M  V30 15 C 4.535647 1.867895 -2.226311 0
M  V30 16 C 3.545934 1.331423 -1.402052 0
M  V30 17 C -0.260517 -0.692405 1.671940 0
M  V30 18 C 0.047294 -0.411093 0.261928 0
M  V30 19 N -1.416367 -1.256732 2.057264 0
M  V30 20 C -2.511116 -1.668004 1.211569 0
M  V30 21 C -3.224218 -0.632749 0.602592 0
M  V30 22 C -4.300121 -0.943543 -0.232895 0
M  V30 23 C -4.599945 -2.289247 -0.409724 0
M  V30 24 C -3.880307 -3.320026 0.204215 0
M  V30 25 C -2.820931 -2.995833 1.026088 0
M  V30 26 O -4.474187 -4.527365 -0.210874 0
M  V30 27 C -5.165199 -4.264422 -1.441677 0
M  V30 28 O -5.598018 -2.923184 -1.169400 0
M  V30 29 H -3.398918 -1.359586 4.032216 0
M  V30 30 H -2.580608 -3.021761 3.944106 0
M  V30 31 H -2.219519 -1.804452 5.262954 0
M  V30 32 H 0.068029 -0.874319 4.926563 0
M  V30 33 H 3.966577 0.199242 2.326818 0
M  V30 34 H 3.202939 1.794524 2.550182 0
M  V30 35 H 5.084862 1.772968 1.566239 0
M  V30 36 H 6.856233 2.728435 0.141503 0
M  V30 37 H 4.412083 1.910214 -3.306677 0
M  V30 38 H 2.639930 0.950621 -1.841248 0
M  V30 39 H 0.945271 -0.988666 -0.039464 0
M  V30 40 H 0.216918 0.641633 0.014401 0
M  V30 41 H -0.756537 -0.851869 -0.414007 0
M  V30 42 H -2.962682 0.412577 0.762577 0
M  V30 43 H -4.887724 -0.179831 -0.730727 0
M  V30 44 H -2.257490 -3.765602 1.505087 0
M  V30 45 H -4.487193 -4.301001 -2.298148 0
M  V30 46 H -6.009068 -4.976835 -1.478230 0
M  V30 END ATOM
M  V30 BEGIN BOND
M  V30 1 1 1 2
M  V30 2 2 2 3
M  V30 3 1 3 4
M  V30 4 1 4 5
M  V30 5 2 5 6
M  V30 6 1 5 7
M  V30 7 1 7 8
M  V30 8 1 8 9
M  V30 9 2 9 10
M  V30 10 1 10 11
M  V30 11 2 11 12
M  V30 12 1 12 13
M  V30 13 3 13 14
M  V30 14 1 12 15
M  V30 15 2 15 16
M  V30 16 2 4 17
M  V30 17 1 17 18
M  V30 18 1 17 19
M  V30 19 1 19 20
M  V30 20 2 20 21
M  V30 21 1 21 22
M  V30 22 2 22 23
M  V30 23 1 23 24
M  V30 24 2 24 25
M  V30 25 1 24 26
M  V30 26 1 26 27
M  V30 27 1 27 28
M  V30 28 1 19 2
M  V30 29 1 25 20
M  V30 30 1 16 9
M  V30 31 1 28 23
M  V30 32 1 1 29
M  V30 33 1 1 30
M  V30 34 1 1 31
M  V30 35 1 3 32
M  V30 36 1 7 33
M  V30 37 1 7 34
M  V30 38 1 10 35
M  V30 39 1 11 36
M  V30 40 1 15 37
M  V30 41 1 16 38
M  V30 42 1 18 39
M  V30 43 1 18 40
M  V30 44 1 18 41
M  V30 45 1 21 42
M  V30 46 1 22 43
M  V30 47 1 25 44
M  V30 48 1 27 45
M  V30 49 1 27 46
M  V30 END BOND
M  V30 END CTAB
M  END
>  <Dataset>  (465) 
ChEMBL_Kinases

>  <Ligand_Instance>  (465) 
nan

>  <PDB_ID>  (465) 
nan

>  <Standardized_SMILES>  (465) 
Cc1cc(C(=O)COc2ccc(C#N)cc2)c(C)n1-c1ccc2c(c1)OCO2

>  <Name>  (465) 
nan

>  <Pocket>  (465) 
nan

>  <ATP_Site>  (465) 
nan

>  <Peripheral>  (465) 
nan

>  <Num_H_Atoms_ProtBoundConf>  (465) 
nan

>  <Num_Resolved_Atoms>  (465) 
nan

>  <Num_Not_Resolved_Atoms>  (465) 
nan

$$$$
CHEMBL1465483
     RDKit          3D

  0  0  0  0  0  0  0  0  0  0999 V3000
M  V30 BEGIN CTAB
M  V30 COUNTS 37 39 0 0 0
M  V30 BEGIN ATOM
M  V30 1 O -0.641977 -0.858770 4.874378 0
M  V30 2 C -0.746244 -1.335012 3.718610 0
M  V30 3 C -0.927087 -2.632425 3.058081 0
M  V30 4 S 0.515743 -3.516388 2.556825 0
M  V30 5 C 1.579813 -2.712529 1.422652 0
M  V30 6 N 2.705919 -2.017190 1.779447 0
M  V30 7 N 3.269035 -1.537374 0.704708 0
M  V30 8 C 2.544153 -1.899972 -0.340496 0
M  V30 9 O 2.828514 -1.573882 -1.689287 0
M  V30 10 N 1.493504 -2.626626 0.084141 0
M  V30 11 C 0.476089 -3.135536 -0.815817 0
M  V30 12 C -0.892683 -2.614633 -0.837356 0
M  V30 13 C 0.052736 -2.021370 -1.826276 0
M  V30 14 N -0.662561 -0.258622 2.736758 0
M  V30 15 C -0.492029 1.207718 2.737234 0
M  V30 16 C -0.198993 1.628646 1.324868 0
M  V30 17 C -1.213102 1.939926 0.424553 0
M  V30 18 C -0.823047 2.275483 -0.858233 0
M  V30 19 C 0.496759 2.306571 -1.251421 0
M  V30 20 C 1.486629 1.987968 -0.322974 0
M  V30 21 C 1.137683 1.643299 0.985630 0
M  V30 22 H -1.527220 -3.336408 3.731913 0
M  V30 23 H -1.608761 -2.551245 2.162037 0
M  V30 24 H 3.059847 -0.638467 -1.921211 0
M  V30 25 H 0.685142 -4.132595 -1.237925 0
M  V30 26 H -1.349619 -1.946090 -0.112553 0
M  V30 27 H -1.660417 -3.281532 -1.313970 0
M  V30 28 H 0.084001 -2.304506 -2.881275 0
M  V30 29 H 0.351919 -0.995999 -1.624852 0
M  V30 30 H -0.743488 -0.566218 1.720824 0
M  V30 31 H -1.452738 1.682845 3.000687 0
M  V30 32 H 0.332821 1.478028 3.388258 0
M  V30 33 H -2.249876 1.921663 0.738804 0
M  V30 34 H -1.569247 2.524891 -1.596656 0
M  V30 35 H 0.809279 2.563719 -2.243533 0
M  V30 36 H 2.546578 1.990570 -0.551330 0
M  V30 37 H 1.900569 1.385636 1.717726 0
M  V30 END ATOM
M  V30 BEGIN BOND
M  V30 1 2 1 2
M  V30 2 1 2 3
M  V30 3 1 3 4
M  V30 4 1 4 5
M  V30 5 2 5 6
M  V30 6 1 6 7
M  V30 7 2 7 8
M  V30 8 1 8 9
M  V30 9 1 8 10
M  V30 10 1 10 11
M  V30 11 1 11 12
M  V30 12 1 12 13
M  V30 13 1 2 14
M  V30 14 1 14 15
M  V30 15 1 15 16
M  V30 16 2 16 17
M  V30 17 1 17 18
M  V30 18 2 18 19
M  V30 19 1 19 20
M  V30 20 2 20 21
M  V30 21 1 10 5
M  V30 22 1 13 11
M  V30 23 1 21 16
M  V30 24 1 3 22
M  V30 25 1 3 23
M  V30 26 1 9 24
M  V30 27 1 11 25
M  V30 28 1 12 26
M  V30 29 1 12 27
M  V30 30 1 13 28
M  V30 31 1 13 29
M  V30 32 1 14 30
M  V30 33 1 15 31
M  V30 34 1 15 32
M  V30 35 1 17 33
M  V30 36 1 18 34
M  V30 37 1 19 35
M  V30 38 1 20 36
M  V30 39 1 21 37
M  V30 END BOND
M  V30 END CTAB
M  END
>  <Dataset>  (466) 
ChEMBL_Kinases

>  <Ligand_Instance>  (466) 
nan

>  <PDB_ID>  (466) 
nan

>  <Standardized_SMILES>  (466) 
O=C(CSc1nnc(O)n1C1CC1)NCc1ccccc1

>  <Name>  (466) 
nan

>  <Pocket>  (466) 
nan

>  <ATP_Site>  (466) 
nan

>  <Peripheral>  (466) 
nan

>  <Num_H_Atoms_ProtBoundConf>  (466) 
nan

>  <Num_Resolved_Atoms>  (466) 
nan

>  <Num_Not_Resolved_Atoms>  (466) 
nan

$$$$
CHEMBL1465507
     RDKit          3D

  0  0  0  0  0  0  0  0  0  0999 V3000
M  V30 BEGIN CTAB
M  V30 COUNTS 35 38 0 0 0
M  V30 BEGIN ATOM
M  V30 1 C 3.688817 -7.296599 3.630828 0
M  V30 2 C 2.824322 -6.201278 3.158001 0
M  V30 3 N 2.972452 -5.132020 2.672856 0
M  V30 4 C 2.053444 -4.274611 2.308648 0
M  V30 5 C 2.426367 -2.972662 1.713330 0
M  V30 6 C 1.562497 -1.981910 1.287886 0
M  V30 7 C 2.248788 -0.895003 0.781875 0
M  V30 8 C 1.730287 0.357199 0.230349 0
M  V30 9 N 0.417856 0.640267 0.134386 0
M  V30 10 C 0.264554 1.880030 -0.420306 0
M  V30 11 C -0.981427 2.591026 -0.710594 0
M  V30 12 C -1.587837 3.431587 0.203899 0
M  V30 13 C -2.761263 4.048521 -0.181709 0
M  V30 14 C -3.300426 3.820338 -1.451125 0
M  V30 15 C -4.574419 4.576439 -1.685366 0
M  V30 16 F -5.442918 4.384533 -0.602253 0
M  V30 17 F -4.338980 5.910305 -1.866222 0
M  V30 18 F -5.213102 3.979985 -2.770974 0
M  V30 19 C -2.684039 2.978269 -2.354368 0
M  V30 20 C -1.497043 2.351939 -1.969132 0
M  V30 21 N 1.539441 2.307673 -0.643544 0
M  V30 22 O 2.390201 1.380834 -0.246544 0
M  V30 23 N 3.526671 -1.289746 0.928942 0
M  V30 24 O 3.604902 -2.452879 1.450911 0
M  V30 25 C 0.690010 -4.704309 2.534794 0
M  V30 26 S 0.933047 -6.339773 3.265594 0
M  V30 27 H 4.052513 -7.866461 2.771076 0
M  V30 28 H 4.480630 -6.863928 4.264857 0
M  V30 29 H 3.122128 -8.024030 4.279400 0
M  V30 30 H 0.473158 -2.064192 1.351140 0
M  V30 31 H -1.126024 3.575129 1.180350 0
M  V30 32 H -3.197331 4.696084 0.567927 0
M  V30 33 H -3.178882 2.864039 -3.316261 0
M  V30 34 H -1.032917 1.694442 -2.699303 0
M  V30 35 H -0.191313 -3.980693 2.229945 0
M  V30 END ATOM
M  V30 BEGIN BOND
M  V30 1 1 1 2
M  V30 2 2 2 3
M  V30 3 1 3 4
M  V30 4 1 4 5
M  V30 5 2 5 6
M  V30 6 1 6 7
M  V30 7 1 7 8
M  V30 8 2 8 9
M  V30 9 1 9 10
M  V30 10 1 10 11
M  V30 11 2 11 12
M  V30 12 1 12 13
M  V30 13 2 13 14
M  V30 14 1 14 15
M  V30 15 1 15 16
M  V30 16 1 15 17
M  V30 17 1 15 18
M  V30 18 1 14 19
M  V30 19 2 19 20
M  V30 20 2 10 21
M  V30 21 1 21 22
M  V30 22 2 7 23
M  V30 23 1 23 24
M  V30 24 2 4 25
M  V30 25 1 25 26
M  V30 26 1 26 2
M  V30 27 1 24 5
M  V30 28 1 22 8
M  V30 29 1 20 11
M  V30 30 1 1 27
M  V30 31 1 1 28
M  V30 32 1 1 29
M  V30 33 1 6 30
M  V30 34 1 12 31
M  V30 35 1 13 32
M  V30 36 1 19 33
M  V30 37 1 20 34
M  V30 38 1 25 35
M  V30 END BOND
M  V30 END CTAB
M  END
>  <Dataset>  (467) 
ChEMBL_Kinases

>  <Ligand_Instance>  (467) 
nan

>  <PDB_ID>  (467) 
nan

>  <Standardized_SMILES>  (467) 
Cc1nc(-c2cc(-c3nc(-c4ccc(C(F)(F)F)cc4)no3)no2)cs1

>  <Name>  (467) 
nan

>  <Pocket>  (467) 
nan

>  <ATP_Site>  (467) 
nan

>  <Peripheral>  (467) 
nan

>  <Num_H_Atoms_ProtBoundConf>  (467) 
nan

>  <Num_Resolved_Atoms>  (467) 
nan

>  <Num_Not_Resolved_Atoms>  (467) 
nan

$$$$
CHEMBL1465613
     RDKit          3D

  0  0  0  0  0  0  0  0  0  0999 V3000
M  V30 BEGIN CTAB
M  V30 COUNTS 37 40 0 0 0
M  V30 BEGIN ATOM
M  V30 1 C -0.651894 -3.404553 4.650796 0
M  V30 2 O -0.556222 -2.455125 3.604837 0
M  V30 3 C 0.654083 -1.865680 3.358318 0
M  V30 4 O 1.442328 -2.363548 4.199528 0
M  V30 5 C 1.073159 -0.881103 2.387443 0
M  V30 6 C 2.389004 -0.467994 2.391558 0
M  V30 7 C 2.495122 0.465253 1.380158 0
M  V30 8 O 3.313727 1.278589 0.758405 0
M  V30 9 C 2.709371 1.939772 -0.197878 0
M  V30 10 C 3.106970 2.888875 -1.119869 0
M  V30 11 C 2.228915 3.432314 -2.039074 0
M  V30 12 C 0.904108 2.999773 -2.023360 0
M  V30 13 C 0.547032 2.049802 -1.086477 0
M  V30 14 C 1.398674 1.507590 -0.178999 0
M  V30 15 C 1.234112 0.560021 0.824253 0
M  V30 16 N 0.344102 -0.269731 1.439004 0
M  V30 17 C -1.038637 -0.456627 1.134788 0
M  V30 18 C -1.321677 -1.534580 0.153579 0
M  V30 19 C -1.397883 -1.392113 -1.214650 0
M  V30 20 C -1.664961 -2.426485 -2.083713 0
M  V30 21 C -1.871490 -3.688579 -1.571843 0
M  V30 22 C -1.781830 -3.763425 -0.198947 0
M  V30 23 N -1.522438 -2.763888 0.657814 0
M  V30 24 H -0.045102 -3.107316 5.556089 0
M  V30 25 H -1.721187 -3.554541 4.957524 0
M  V30 26 H -0.263015 -4.407082 4.376973 0
M  V30 27 H 3.229658 -0.750323 3.008303 0
M  V30 28 H 4.150944 3.234363 -1.137262 0
M  V30 29 H 2.537561 4.176101 -2.762827 0
M  V30 30 H 0.219566 3.417539 -2.732877 0
M  V30 31 H -0.482431 1.769315 -1.126569 0
M  V30 32 H -1.444734 0.509366 0.732028 0
M  V30 33 H -1.637914 -0.652022 2.049344 0
M  V30 34 H -1.239154 -0.408096 -1.629117 0
M  V30 35 H -1.714177 -2.263182 -3.150273 0
M  V30 36 H -2.086450 -4.558888 -2.174512 0
M  V30 37 H -1.939590 -4.750218 0.250477 0
M  V30 END ATOM
M  V30 BEGIN BOND
M  V30 1 1 1 2
M  V30 2 1 2 3
M  V30 3 2 3 4
M  V30 4 1 3 5
M  V30 5 2 5 6
M  V30 6 1 6 7
M  V30 7 1 7 8
M  V30 8 1 8 9
M  V30 9 2 9 10
M  V30 10 1 10 11
M  V30 11 2 11 12
M  V30 12 1 12 13
M  V30 13 2 13 14
M  V30 14 1 14 15
M  V30 15 1 15 16
M  V30 16 1 16 17
M  V30 17 1 17 18
M  V30 18 2 18 19
M  V30 19 1 19 20
M  V30 20 2 20 21
M  V30 21 1 21 22
M  V30 22 2 22 23
M  V30 23 1 16 5
M  V30 24 1 23 18
M  V30 25 2 15 7
M  V30 26 1 14 9
M  V30 27 1 1 24
M  V30 28 1 1 25
M  V30 29 1 1 26
M  V30 30 1 6 27
M  V30 31 1 10 28
M  V30 32 1 11 29
M  V30 33 1 12 30
M  V30 34 1 13 31
M  V30 35 1 17 32
M  V30 36 1 17 33
M  V30 37 1 19 34
M  V30 38 1 20 35
M  V30 39 1 21 36
M  V30 40 1 22 37
M  V30 END BOND
M  V30 END CTAB
M  END
>  <Dataset>  (468) 
ChEMBL_Kinases

>  <Ligand_Instance>  (468) 
nan

>  <PDB_ID>  (468) 
nan

>  <Standardized_SMILES>  (468) 
COC(=O)c1cc2oc3ccccc3c2n1Cc1ccccn1

>  <Name>  (468) 
nan

>  <Pocket>  (468) 
nan

>  <ATP_Site>  (468) 
nan

>  <Peripheral>  (468) 
nan

>  <Num_H_Atoms_ProtBoundConf>  (468) 
nan

>  <Num_Resolved_Atoms>  (468) 
nan

>  <Num_Not_Resolved_Atoms>  (468) 
nan

$$$$
CHEMBL1465680
     RDKit          3D

  0  0  0  0  0  0  0  0  0  0999 V3000
M  V30 BEGIN CTAB
M  V30 COUNTS 57 60 0 0 0
M  V30 BEGIN ATOM
M  V30 1 C 4.349206 1.395715 6.062432 0
M  V30 2 O 3.437232 0.567814 5.337838 0
M  V30 3 C 2.225525 0.153795 5.891459 0
M  V30 4 O 2.104937 0.622101 7.072987 0
M  V30 5 C 1.291503 -0.706648 5.120945 0
M  V30 6 N 1.823507 -1.018626 3.783628 0
M  V30 7 C 2.564631 -2.138679 3.809924 0
M  V30 8 N 3.086204 -2.485400 2.619922 0
M  V30 9 C 2.844983 -1.724099 1.522695 0
M  V30 10 S 3.409994 -1.952579 -0.103164 0
M  V30 11 C 2.593798 -0.468690 -0.799171 0
M  V30 12 C 2.789927 -0.223360 -2.219044 0
M  V30 13 C 1.925915 0.101473 0.328079 0
M  V30 14 S 1.037039 1.567685 0.006892 0
M  V30 15 O 1.747034 2.382932 -1.078011 0
M  V30 16 O 1.048913 2.504600 1.182825 0
M  V30 17 N -0.538517 1.316507 -0.604029 0
M  V30 18 C -1.459186 0.617877 0.195852 0
M  V30 19 C -1.926798 -0.693064 -0.403907 0
M  V30 20 N -2.454616 -0.453876 -1.727452 0
M  V30 21 C -3.465156 -1.354776 -2.184217 0
M  V30 22 C -4.728834 -0.900152 -2.524401 0
M  V30 23 C -5.667207 -1.839822 -2.961831 0
M  V30 24 C -5.303135 -3.169383 -3.037218 0
M  V30 25 C -4.030183 -3.610987 -2.692122 0
M  V30 26 C -3.075934 -2.696495 -2.253319 0
M  V30 27 O -1.800385 -3.092688 -1.900831 0
M  V30 28 C -1.448388 -4.466956 -1.986763 0
M  V30 29 C -1.903909 0.688123 -2.473290 0
M  V30 30 C -0.465134 0.838103 -1.956445 0
M  V30 31 C 2.102110 -0.596441 1.479443 0
M  V30 32 C 1.578605 -0.258886 2.707135 0
M  V30 33 O 0.865443 0.706251 3.001372 0
M  V30 34 H 5.261365 1.479105 5.431516 0
M  V30 35 H 3.962665 2.395828 6.273021 0
M  V30 36 H 4.657442 0.857963 6.991051 0
M  V30 37 H 0.330870 -0.169328 4.925406 0
M  V30 38 H 1.053704 -1.598373 5.696491 0
M  V30 39 H 2.774031 -2.756151 4.641857 0
M  V30 40 H 2.425762 -1.033578 -2.878188 0
M  V30 41 H 3.896201 -0.185971 -2.413955 0
M  V30 42 H 2.350740 0.718605 -2.548386 0
M  V30 43 H -1.043673 0.387823 1.180636 0
M  V30 44 H -2.388319 1.226916 0.418726 0
M  V30 45 H -2.755688 -1.063489 0.228647 0
M  V30 46 H -1.112464 -1.425148 -0.372544 0
M  V30 47 H -4.933039 0.171300 -2.435463 0
M  V30 48 H -6.657632 -1.471474 -3.226789 0
M  V30 49 H -6.092875 -3.819938 -3.384677 0
M  V30 50 H -3.798686 -4.650196 -2.768643 0
M  V30 51 H -1.368113 -4.813354 -3.042057 0
M  V30 52 H -2.193642 -5.123246 -1.493099 0
M  V30 53 H -0.481411 -4.675551 -1.495522 0
M  V30 54 H -1.920072 0.512017 -3.549545 0
M  V30 55 H -2.480893 1.577973 -2.191152 0
M  V30 56 H 0.099237 1.525909 -2.595644 0
M  V30 57 H -0.082620 -0.192761 -1.918810 0
M  V30 END ATOM
M  V30 BEGIN BOND
M  V30 1 1 1 2
M  V30 2 1 2 3
M  V30 3 2 3 4
M  V30 4 1 3 5
M  V30 5 1 5 6
M  V30 6 1 6 7
M  V30 7 2 7 8
M  V30 8 1 8 9
M  V30 9 1 9 10
M  V30 10 1 10 11
M  V30 11 1 11 12
M  V30 12 2 11 13
M  V30 13 1 13 14
M  V30 14 2 14 15
M  V30 15 2 14 16
M  V30 16 1 14 17
M  V30 17 1 17 18
M  V30 18 1 18 19
M  V30 19 1 19 20
M  V30 20 1 20 21
M  V30 21 2 21 22
M  V30 22 1 22 23
M  V30 23 2 23 24
M  V30 24 1 24 25
M  V30 25 2 25 26
M  V30 26 1 26 27
M  V30 27 1 27 28
M  V30 28 1 20 29
M  V30 29 1 29 30
M  V30 30 1 13 31
M  V30 31 1 31 32
M  V30 32 2 32 33
M  V30 33 1 32 6
M  V30 34 2 31 9
M  V30 35 1 30 17
M  V30 36 1 26 21
M  V30 37 1 1 34
M  V30 38 1 1 35
M  V30 39 1 1 36
M  V30 40 1 5 37
M  V30 41 1 5 38
M  V30 42 1 7 39
M  V30 43 1 12 40
M  V30 44 1 12 41
M  V30 45 1 12 42
M  V30 46 1 18 43
M  V30 47 1 18 44
M  V30 48 1 19 45
M  V30 49 1 19 46
M  V30 50 1 22 47
M  V30 51 1 23 48
M  V30 52 1 24 49
M  V30 53 1 25 50
M  V30 54 1 28 51
M  V30 55 1 28 52
M  V30 56 1 28 53
M  V30 57 1 29 54
M  V30 58 1 29 55
M  V30 59 1 30 56
M  V30 60 1 30 57
M  V30 END BOND
M  V30 END CTAB
M  END
>  <Dataset>  (469) 
ChEMBL_Kinases

>  <Ligand_Instance>  (469) 
nan

>  <PDB_ID>  (469) 
nan

>  <Standardized_SMILES>  (469) 
COC(=O)Cn1cnc2sc(C)c(S(=O)(=O)N3CCN(c4ccccc4OC)CC3)c2c1=O

>  <Name>  (469) 
nan

>  <Pocket>  (469) 
nan

>  <ATP_Site>  (469) 
nan

>  <Peripheral>  (469) 
nan

>  <Num_H_Atoms_ProtBoundConf>  (469) 
nan

>  <Num_Resolved_Atoms>  (469) 
nan

>  <Num_Not_Resolved_Atoms>  (469) 
nan

$$$$
CHEMBL1466042
     RDKit          3D

  0  0  0  0  0  0  0  0  0  0999 V3000
M  V30 BEGIN CTAB
M  V30 COUNTS 61 64 0 0 0
M  V30 BEGIN ATOM
M  V30 1 O -0.554740 -1.925113 0.483065 0
M  V30 2 C -0.782752 -2.086342 -0.737519 0
M  V30 3 N 0.206697 -1.526939 -1.569473 0
M  V30 4 C 1.430309 -0.806802 -1.534800 0
M  V30 5 C 1.419172 0.564658 -0.905894 0
M  V30 6 C 2.804988 1.171989 -1.030987 0
M  V30 7 C 3.981052 0.739526 -0.472952 0
M  V30 8 C 5.170102 1.405521 -0.649337 0
M  V30 9 C 5.255068 2.554497 -1.402402 0
M  V30 10 N 4.114193 2.997295 -1.960474 0
M  V30 11 C 2.949462 2.346210 -1.788045 0
M  V30 12 N 0.953713 0.632937 0.438688 0
M  V30 13 C 1.714964 0.052680 1.471654 0
M  V30 14 C 0.828558 -0.107404 2.717843 0
M  V30 15 N -0.286289 0.799787 2.558487 0
M  V30 16 C -1.667758 0.497209 2.699040 0
M  V30 17 C -2.691226 1.372640 2.463704 0
M  V30 18 C -4.011797 1.016668 2.623704 0
M  V30 19 C -4.386935 -0.239870 3.029744 0
M  V30 20 F -5.704982 -0.487491 3.155880 0
M  V30 21 C -3.375640 -1.142771 3.274070 0
M  V30 22 C -2.058919 -0.759591 3.105736 0
M  V30 23 C 0.200452 2.123863 2.228214 0
M  V30 24 C 0.722161 2.041604 0.830006 0
M  V30 25 C -1.980066 -2.796852 -1.190176 0
M  V30 26 C -1.698809 -4.017152 -2.045124 0
M  V30 27 C -0.811822 -5.007437 -1.337271 0
M  V30 28 C -1.339836 -5.396991 0.015643 0
M  V30 29 C -1.957486 -4.297766 0.795267 0
M  V30 30 C -2.733018 -3.292415 0.022370 0
M  V30 31 H -0.117137 -1.740070 -2.578438 0
M  V30 32 H 1.841248 -0.764616 -2.565052 0
M  V30 33 H 2.242276 -1.368780 -0.984236 0
M  V30 34 H 0.757553 1.196754 -1.524644 0
M  V30 35 H 3.967170 -0.149840 0.097762 0
M  V30 36 H 6.050432 0.997644 -0.174199 0
M  V30 37 H 6.163705 3.100072 -1.561787 0
M  V30 38 H 2.086165 2.790444 -2.283853 0
M  V30 39 H 2.590049 0.712231 1.750775 0
M  V30 40 H 2.114700 -0.941858 1.285779 0
M  V30 41 H 1.404646 0.264879 3.598222 0
M  V30 42 H 0.552204 -1.159223 2.865227 0
M  V30 43 H -2.471721 2.374995 2.141723 0
M  V30 44 H -4.782845 1.770115 2.417069 0
M  V30 45 H -3.691813 -2.128151 3.593246 0
M  V30 46 H -1.375635 -1.566174 3.332565 0
M  V30 47 H 1.031974 2.399810 2.940264 0
M  V30 48 H -0.543420 2.929901 2.373754 0
M  V30 49 H -0.064008 2.427995 0.154583 0
M  V30 50 H 1.622381 2.652717 0.652362 0
M  V30 51 H -2.646121 -2.158863 -1.821546 0
M  V30 52 H -2.661195 -4.482378 -2.264145 0
M  V30 53 H -1.144252 -3.651539 -2.933786 0
M  V30 54 H 0.245410 -4.673166 -1.278849 0
M  V30 55 H -0.816750 -5.926066 -1.965861 0
M  V30 56 H -2.020244 -6.263771 -0.078038 0
M  V30 57 H -0.455818 -5.786508 0.580706 0
M  V30 58 H -2.711038 -4.795930 1.486266 0
M  V30 59 H -1.215528 -3.880273 1.515058 0
M  V30 60 H -3.024122 -2.464197 0.700731 0
M  V30 61 H -3.664903 -3.802915 -0.324893 0
M  V30 END ATOM
M  V30 BEGIN BOND
M  V30 1 2 1 2
M  V30 2 1 2 3
M  V30 3 1 3 4
M  V30 4 1 4 5
M  V30 5 1 5 6
M  V30 6 2 6 7
M  V30 7 1 7 8
M  V30 8 2 8 9
M  V30 9 1 9 10
M  V30 10 2 10 11
M  V30 11 1 5 12
M  V30 12 1 12 13
M  V30 13 1 13 14
M  V30 14 1 14 15
M  V30 15 1 15 16
M  V30 16 2 16 17
M  V30 17 1 17 18
M  V30 18 2 18 19
M  V30 19 1 19 20
M  V30 20 1 19 21
M  V30 21 2 21 22
M  V30 22 1 15 23
M  V30 23 1 23 24
M  V30 24 1 2 25
M  V30 25 1 25 26
M  V30 26 1 26 27
M  V30 27 1 27 28
M  V30 28 1 28 29
M  V30 29 1 29 30
M  V30 30 1 11 6
M  V30 31 1 24 12
M  V30 32 1 30 25
M  V30 33 1 22 16
M  V30 34 1 3 31
M  V30 35 1 4 32
M  V30 36 1 4 33
M  V30 37 1 5 34
M  V30 38 1 7 35
M  V30 39 1 8 36
M  V30 40 1 9 37
M  V30 41 1 11 38
M  V30 42 1 13 39
M  V30 43 1 13 40
M  V30 44 1 14 41
M  V30 45 1 14 42
M  V30 46 1 17 43
M  V30 47 1 18 44
M  V30 48 1 21 45
M  V30 49 1 22 46
M  V30 50 1 23 47
M  V30 51 1 23 48
M  V30 52 1 24 49
M  V30 53 1 24 50
M  V30 54 1 25 51
M  V30 55 1 26 52
M  V30 56 1 26 53
M  V30 57 1 27 54
M  V30 58 1 27 55
M  V30 59 1 28 56
M  V30 60 1 28 57
M  V30 61 1 29 58
M  V30 62 1 29 59
M  V30 63 1 30 60
M  V30 64 1 30 61
M  V30 END BOND
M  V30 END CTAB
M  END
>  <Dataset>  (470) 
ChEMBL_Kinases

>  <Ligand_Instance>  (470) 
nan

>  <PDB_ID>  (470) 
nan

>  <Standardized_SMILES>  (470) 
O=C(NCC(c1cccnc1)N1CCN(c2ccc(F)cc2)CC1)C1CCCCC1

>  <Name>  (470) 
nan

>  <Pocket>  (470) 
nan

>  <ATP_Site>  (470) 
nan

>  <Peripheral>  (470) 
nan

>  <Num_H_Atoms_ProtBoundConf>  (470) 
nan

>  <Num_Resolved_Atoms>  (470) 
nan

>  <Num_Not_Resolved_Atoms>  (470) 
nan

$$$$
CHEMBL1466064
     RDKit          3D

  0  0  0  0  0  0  0  0  0  0999 V3000
M  V30 BEGIN CTAB
M  V30 COUNTS 45 47 0 0 0
M  V30 BEGIN ATOM
M  V30 1 C 2.989681 -4.955713 -0.131713 0
M  V30 2 C 2.403088 -3.818512 0.639760 0
M  V30 3 C 3.361351 -2.663809 0.851345 0
M  V30 4 O 3.798280 -2.119040 -0.371354 0
M  V30 5 C 3.299894 -0.883708 -0.762882 0
M  V30 6 C 3.650252 -0.477292 -2.051329 0
M  V30 7 C 3.210135 0.746292 -2.559865 0
M  V30 8 C 2.407169 1.595474 -1.791058 0
M  V30 9 C 2.076202 1.169441 -0.522263 0
M  V30 10 C 2.507180 -0.035615 -0.015823 0
M  V30 11 N 2.136110 -0.427403 1.301320 0
M  V30 12 C 1.307198 0.394562 2.162218 0
M  V30 13 C -0.147104 0.073893 1.970928 0
M  V30 14 O -0.422222 -0.826299 1.124438 0
M  V30 15 N -1.061667 0.811134 2.756832 0
M  V30 16 C -2.446204 0.468573 2.538626 0
M  V30 17 C -2.990333 -0.544929 3.333276 0
M  V30 18 C -4.320695 -0.866417 3.115941 0
M  V30 19 C -5.055897 -0.199523 2.149821 0
M  V30 20 C -4.493728 0.797936 1.378560 0
M  V30 21 C -3.168691 1.156218 1.556871 0
M  V30 22 O -2.485245 2.138050 0.850411 0
M  V30 23 C -3.208118 2.837625 -0.143449 0
M  V30 24 C 2.641223 -1.691292 1.712579 0
M  V30 25 O 2.479973 -2.048390 2.908800 0
M  V30 26 H 2.217537 -5.469798 -0.729037 0
M  V30 27 H 3.871329 -4.657651 -0.731942 0
M  V30 28 H 3.343389 -5.722967 0.607794 0
M  V30 29 H 1.461574 -3.489290 0.160645 0
M  V30 30 H 2.103121 -4.164077 1.668142 0
M  V30 31 H 4.269312 -3.032402 1.369490 0
M  V30 32 H 4.274537 -1.095160 -2.700960 0
M  V30 33 H 3.519508 1.010582 -3.581650 0
M  V30 34 H 2.106869 2.522977 -2.251652 0
M  V30 35 H 1.455667 1.826112 0.071058 0
M  V30 36 H 1.479695 1.463945 2.077034 0
M  V30 37 H 1.527454 0.033589 3.203848 0
M  V30 38 H -0.727400 1.535948 3.429263 0
M  V30 39 H -2.353344 -1.021874 4.069297 0
M  V30 40 H -4.763549 -1.660625 3.731951 0
M  V30 41 H -6.100681 -0.453934 1.981084 0
M  V30 42 H -5.041173 1.342224 0.611360 0
M  V30 43 H -4.196976 3.166915 0.266285 0
M  V30 44 H -2.642180 3.704474 -0.540068 0
M  V30 45 H -3.443686 2.156755 -0.993786 0
M  V30 END ATOM
M  V30 BEGIN BOND
M  V30 1 1 1 2
M  V30 2 1 2 3
M  V30 3 1 3 4
M  V30 4 1 4 5
M  V30 5 2 5 6
M  V30 6 1 6 7
M  V30 7 2 7 8
M  V30 8 1 8 9
M  V30 9 2 9 10
M  V30 10 1 10 11
M  V30 11 1 11 12
M  V30 12 1 12 13
M  V30 13 2 13 14
M  V30 14 1 13 15
M  V30 15 1 15 16
M  V30 16 2 16 17
M  V30 17 1 17 18
M  V30 18 2 18 19
M  V30 19 1 19 20
M  V30 20 2 20 21
M  V30 21 1 21 22
M  V30 22 1 22 23
M  V30 23 1 11 24
M  V30 24 2 24 25
M  V30 25 1 24 3
M  V30 26 1 10 5
M  V30 27 1 21 16
M  V30 28 1 1 26
M  V30 29 1 1 27
M  V30 30 1 1 28
M  V30 31 1 2 29
M  V30 32 1 2 30
M  V30 33 1 3 31
M  V30 34 1 6 32
M  V30 35 1 7 33
M  V30 36 1 8 34
M  V30 37 1 9 35
M  V30 38 1 12 36
M  V30 39 1 12 37
M  V30 40 1 15 38
M  V30 41 1 17 39
M  V30 42 1 18 40
M  V30 43 1 19 41
M  V30 44 1 20 42
M  V30 45 1 23 43
M  V30 46 1 23 44
M  V30 47 1 23 45
M  V30 END BOND
M  V30 END CTAB
M  END
>  <Dataset>  (471) 
ChEMBL_Kinases

>  <Ligand_Instance>  (471) 
nan

>  <PDB_ID>  (471) 
nan

>  <Standardized_SMILES>  (471) 
CCC1Oc2ccccc2N(CC(=O)Nc2ccccc2OC)C1=O

>  <Name>  (471) 
nan

>  <Pocket>  (471) 
nan

>  <ATP_Site>  (471) 
nan

>  <Peripheral>  (471) 
nan

>  <Num_H_Atoms_ProtBoundConf>  (471) 
nan

>  <Num_Resolved_Atoms>  (471) 
nan

>  <Num_Not_Resolved_Atoms>  (471) 
nan

$$$$
CHEMBL1466102
     RDKit          3D

  0  0  0  0  0  0  0  0  0  0999 V3000
M  V30 BEGIN CTAB
M  V30 COUNTS 27 28 0 0 0
M  V30 BEGIN ATOM
M  V30 1 O 0.422214 -1.894747 3.933799 0
M  V30 2 C -0.274966 -1.773117 2.906990 0
M  V30 3 C 0.310436 -0.550687 2.510203 0
M  V30 4 C 1.071938 0.476864 2.527969 0
M  V30 5 N 1.205709 1.606949 1.640787 0
M  V30 6 C 1.453779 1.315665 0.296638 0
M  V30 7 C 0.433216 1.436423 -0.648403 0
M  V30 8 C 0.790186 1.107068 -1.937095 0
M  V30 9 C 2.023615 0.682696 -2.372868 0
M  V30 10 Br 2.425346 0.244794 -4.179778 0
M  V30 11 C 2.957243 0.596244 -1.377226 0
M  V30 12 C 2.736126 0.894790 -0.041437 0
M  V30 13 F 3.703563 0.785628 0.896874 0
M  V30 14 C -1.289016 -2.626106 2.389551 0
M  V30 15 C -1.809382 -2.087993 1.190027 0
M  V30 16 C -2.796726 -2.975955 0.739420 0
M  V30 17 C -2.821823 -3.981834 1.667262 0
M  V30 18 O -1.921672 -3.665433 2.548358 0
M  V30 19 H -0.298102 -0.370014 1.577913 0
M  V30 20 H 1.573468 0.152385 3.472410 0
M  V30 21 H 1.091048 2.494673 2.177640 0
M  V30 22 H -0.558099 1.758363 -0.432694 0
M  V30 23 H -0.000320 1.192541 -2.697750 0
M  V30 24 H 3.972568 0.270185 -1.589956 0
M  V30 25 H -1.740491 -1.255335 0.476388 0
M  V30 26 H -3.488573 -3.062384 -0.096181 0
M  V30 27 H -3.325627 -4.916024 1.899394 0
M  V30 END ATOM
M  V30 BEGIN BOND
M  V30 1 2 1 2
M  V30 2 1 2 3
M  V30 3 2 3 4
M  V30 4 1 4 5
M  V30 5 1 5 6
M  V30 6 2 6 7
M  V30 7 1 7 8
M  V30 8 2 8 9
M  V30 9 1 9 10
M  V30 10 1 9 11
M  V30 11 2 11 12
M  V30 12 1 12 13
M  V30 13 1 2 14
M  V30 14 2 14 15
M  V30 15 1 15 16
M  V30 16 2 16 17
M  V30 17 1 17 18
M  V30 18 1 12 6
M  V30 19 1 18 14
M  V30 20 1 3 19
M  V30 21 1 4 20
M  V30 22 1 5 21
M  V30 23 1 7 22
M  V30 24 1 8 23
M  V30 25 1 11 24
M  V30 26 1 15 25
M  V30 27 1 16 26
M  V30 28 1 17 27
M  V30 END BOND
M  V30 END CTAB
M  END
>  <Dataset>  (472) 
ChEMBL_Kinases

>  <Ligand_Instance>  (472) 
nan

>  <PDB_ID>  (472) 
nan

>  <Standardized_SMILES>  (472) 
O=C(/C=C/Nc1ccc(Br)cc1F)c1ccco1

>  <Name>  (472) 
nan

>  <Pocket>  (472) 
nan

>  <ATP_Site>  (472) 
nan

>  <Peripheral>  (472) 
nan

>  <Num_H_Atoms_ProtBoundConf>  (472) 
nan

>  <Num_Resolved_Atoms>  (472) 
nan

>  <Num_Not_Resolved_Atoms>  (472) 
nan

$$$$
CHEMBL1465291
     RDKit          3D

  0  0  0  0  0  0  0  0  0  0999 V3000
M  V30 BEGIN CTAB
M  V30 COUNTS 39 40 0 0 0
M  V30 BEGIN ATOM
M  V30 1 C 1.736584 -5.326930 2.254245 0
M  V30 2 O 1.746855 -3.904313 2.280474 0
M  V30 3 C 2.893443 -3.139239 2.146675 0
M  V30 4 O 4.032071 -3.655030 1.989101 0
M  V30 5 C 2.781738 -1.686162 2.189297 0
M  V30 6 C 3.889614 -0.874630 2.061391 0
M  V30 7 C 3.681633 0.494342 2.114862 0
M  V30 8 Br 5.173491 1.685850 1.944533 0
M  V30 9 C 2.427979 1.060475 2.288342 0
M  V30 10 O 2.240861 2.287534 2.336364 0
M  V30 11 N 1.350417 0.269441 2.412715 0
M  V30 12 C -0.023081 0.724543 2.599562 0
M  V30 13 C -0.662926 0.903104 1.246810 0
M  V30 14 C -0.590954 2.118829 0.586426 0
M  V30 15 C -1.174915 2.280952 -0.647606 0
M  V30 16 C -1.821555 1.197569 -1.183725 0
M  V30 17 O -2.411652 1.357838 -2.428372 0
M  V30 18 C -2.347109 2.607225 -3.125182 0
M  V30 19 C -1.936856 -0.043146 -0.590562 0
M  V30 20 O -2.605995 -1.107625 -1.182528 0
M  V30 21 C -2.632260 -2.322435 -0.434385 0
M  V30 22 C -1.324739 -0.142026 0.656245 0
M  V30 23 C 1.564377 -1.066692 2.359106 0
M  V30 24 H 0.752006 -5.615863 2.722021 0
M  V30 25 H 2.574044 -5.774015 2.808006 0
M  V30 26 H 1.688275 -5.725483 1.205727 0
M  V30 27 H 4.876542 -1.297612 1.925263 0
M  V30 28 H 0.005228 1.707137 3.116997 0
M  V30 29 H -0.569837 -0.040740 3.147372 0
M  V30 30 H -0.083392 2.961263 1.012435 0
M  V30 31 H -1.125004 3.223274 -1.170826 0
M  V30 32 H -2.742695 3.405642 -2.483288 0
M  V30 33 H -2.988403 2.559324 -4.011827 0
M  V30 34 H -1.290412 2.864544 -3.367120 0
M  V30 35 H -1.578650 -2.652120 -0.322694 0
M  V30 36 H -3.236310 -3.100529 -0.922803 0
M  V30 37 H -3.030681 -2.061055 0.558456 0
M  V30 38 H -1.361690 -1.074321 1.197889 0
M  V30 39 H 0.710922 -1.739723 2.456717 0
M  V30 END ATOM
M  V30 BEGIN BOND
M  V30 1 1 1 2
M  V30 2 1 2 3
M  V30 3 2 3 4
M  V30 4 1 3 5
M  V30 5 1 5 6
M  V30 6 2 6 7
M  V30 7 1 7 8
M  V30 8 1 7 9
M  V30 9 2 9 10
M  V30 10 1 9 11
M  V30 11 1 11 12
M  V30 12 1 12 13
M  V30 13 2 13 14
M  V30 14 1 14 15
M  V30 15 2 15 16
M  V30 16 1 16 17
M  V30 17 1 17 18
M  V30 18 1 16 19
M  V30 19 1 19 20
M  V30 20 1 20 21
M  V30 21 2 19 22
M  V30 22 1 11 23
M  V30 23 2 23 5
M  V30 24 1 22 13
M  V30 25 1 1 24
M  V30 26 1 1 25
M  V30 27 1 1 26
M  V30 28 1 6 27
M  V30 29 1 12 28
M  V30 30 1 12 29
M  V30 31 1 14 30
M  V30 32 1 15 31
M  V30 33 1 18 32
M  V30 34 1 18 33
M  V30 35 1 18 34
M  V30 36 1 21 35
M  V30 37 1 21 36
M  V30 38 1 21 37
M  V30 39 1 22 38
M  V30 40 1 23 39
M  V30 END BOND
M  V30 END CTAB
M  END
>  <Dataset>  (473) 
ChEMBL_Kinases

>  <Ligand_Instance>  (473) 
nan

>  <PDB_ID>  (473) 
nan

>  <Standardized_SMILES>  (473) 
COC(=O)c1cc(Br)c(=O)n(Cc2ccc(OC)c(OC)c2)c1

>  <Name>  (473) 
nan

>  <Pocket>  (473) 
nan

>  <ATP_Site>  (473) 
nan

>  <Peripheral>  (473) 
nan

>  <Num_H_Atoms_ProtBoundConf>  (473) 
nan

>  <Num_Resolved_Atoms>  (473) 
nan

>  <Num_Not_Resolved_Atoms>  (473) 
nan

$$$$
CHEMBL1458709
     RDKit          3D

  0  0  0  0  0  0  0  0  0  0999 V3000
M  V30 BEGIN CTAB
M  V30 COUNTS 29 30 0 0 0
M  V30 BEGIN ATOM
M  V30 1 O -1.452124 0.171131 0.694490 0
M  V30 2 C -1.055735 -0.905033 1.211321 0
M  V30 3 N -0.057994 -0.764634 2.211836 0
M  V30 4 N 0.337855 0.551393 2.475891 0
M  V30 5 C 1.420473 1.093367 1.726717 0
M  V30 6 C 2.078358 0.360724 0.760316 0
M  V30 7 C 3.130168 0.864485 0.021490 0
M  V30 8 Br 4.032439 -0.156873 -1.311877 0
M  V30 9 C 3.532559 2.179699 0.279101 0
M  V30 10 O 4.582397 2.778731 -0.412024 0
M  V30 11 C 2.916844 2.961575 1.229858 0
M  V30 12 Br 3.438512 4.752514 1.605187 0
M  V30 13 C 1.865008 2.383374 1.932877 0
M  V30 14 C -1.628928 -2.172341 0.761634 0
M  V30 15 C -2.589725 -2.087809 -0.224963 0
M  V30 16 C -3.180684 -3.243296 -0.704562 0
M  V30 17 C -2.801381 -4.455227 -0.190893 0
M  V30 18 C -1.838523 -4.511681 0.794844 0
M  V30 19 C -1.216842 -3.369010 1.307056 0
M  V30 20 H 0.296348 -1.635313 2.664227 0
M  V30 21 H -0.116491 1.151393 3.188501 0
M  V30 22 H 1.754752 -0.659824 0.571042 0
M  V30 23 H 5.011955 2.383435 -1.232541 0
M  V30 24 H 1.371834 2.993412 2.686612 0
M  V30 25 H -2.920663 -1.152201 -0.660299 0
M  V30 26 H -3.948225 -3.273820 -1.482392 0
M  V30 27 H -3.245839 -5.384528 -0.545256 0
M  V30 28 H -1.524425 -5.476867 1.216155 0
M  V30 29 H -0.469027 -3.429178 2.074345 0
M  V30 END ATOM
M  V30 BEGIN BOND
M  V30 1 2 1 2
M  V30 2 1 2 3
M  V30 3 1 3 4
M  V30 4 1 4 5
M  V30 5 2 5 6
M  V30 6 1 6 7
M  V30 7 1 7 8
M  V30 8 2 7 9
M  V30 9 1 9 10
M  V30 10 1 9 11
M  V30 11 1 11 12
M  V30 12 2 11 13
M  V30 13 1 2 14
M  V30 14 2 14 15
M  V30 15 1 15 16
M  V30 16 2 16 17
M  V30 17 1 17 18
M  V30 18 2 18 19
M  V30 19 1 13 5
M  V30 20 1 19 14
M  V30 21 1 3 20
M  V30 22 1 4 21
M  V30 23 1 6 22
M  V30 24 1 10 23
M  V30 25 1 13 24
M  V30 26 1 15 25
M  V30 27 1 16 26
M  V30 28 1 17 27
M  V30 29 1 18 28
M  V30 30 1 19 29
M  V30 END BOND
M  V30 END CTAB
M  END
>  <Dataset>  (474) 
ChEMBL_Kinases

>  <Ligand_Instance>  (474) 
nan

>  <PDB_ID>  (474) 
nan

>  <Standardized_SMILES>  (474) 
O=C(NNc1cc(Br)c(O)c(Br)c1)c1ccccc1

>  <Name>  (474) 
nan

>  <Pocket>  (474) 
nan

>  <ATP_Site>  (474) 
nan

>  <Peripheral>  (474) 
nan

>  <Num_H_Atoms_ProtBoundConf>  (474) 
nan

>  <Num_Resolved_Atoms>  (474) 
nan

>  <Num_Not_Resolved_Atoms>  (474) 
nan

$$$$
CHEMBL1458653
     RDKit          3D

  0  0  0  0  0  0  0  0  0  0999 V3000
M  V30 BEGIN CTAB
M  V30 COUNTS 33 35 0 0 0
M  V30 BEGIN ATOM
M  V30 1 C -2.020813 -2.007439 3.770213 0
M  V30 2 C -1.193751 -3.223882 3.485174 0
M  V30 3 C -1.264184 -3.560782 2.033307 0
M  V30 4 C -0.740289 -2.405266 1.232232 0
M  V30 5 O 0.588152 -2.130634 1.571811 0
M  V30 6 C 1.344884 -1.127045 1.008869 0
M  V30 7 N 2.620069 -0.976806 1.436137 0
M  V30 8 C 3.381332 0.011997 0.888394 0
M  V30 9 N 2.975432 0.878471 -0.063976 0
M  V30 10 C 1.728939 0.771905 -0.517605 0
M  V30 11 C 0.941028 1.422436 -1.445312 0
M  V30 12 C 1.204554 2.488346 -2.281013 0
M  V30 13 C 0.217907 2.949808 -3.127387 0
M  V30 14 C -1.015618 2.330697 -3.117640 0
M  V30 15 C -1.340828 1.250321 -2.296179 0
M  V30 16 C -0.316158 0.831293 -1.470956 0
M  V30 17 N -0.319207 -0.176093 -0.572831 0
M  V30 18 C 0.873637 -0.270510 0.036604 0
M  V30 19 H -2.707196 -1.834683 2.925071 0
M  V30 20 H -2.669811 -2.152288 4.666110 0
M  V30 21 H -1.410736 -1.108600 3.919527 0
M  V30 22 H -1.509093 -4.072332 4.138825 0
M  V30 23 H -0.127747 -3.020246 3.721471 0
M  V30 24 H -0.666976 -4.476022 1.857578 0
M  V30 25 H -2.324906 -3.766427 1.760849 0
M  V30 26 H -1.399225 -1.530202 1.388879 0
M  V30 27 H -0.795043 -2.727783 0.155490 0
M  V30 28 H 2.981080 -1.608091 2.158752 0
M  V30 29 H 4.405948 0.098215 1.262498 0
M  V30 30 H 2.190292 2.923421 -2.235514 0
M  V30 31 H 0.418403 3.788047 -3.787555 0
M  V30 32 H -1.817207 2.677218 -3.779918 0
M  V30 33 H -2.291890 0.770883 -2.286800 0
M  V30 END ATOM
M  V30 BEGIN BOND
M  V30 1 1 1 2
M  V30 2 1 2 3
M  V30 3 1 3 4
M  V30 4 1 4 5
M  V30 5 1 5 6
M  V30 6 1 6 7
M  V30 7 1 7 8
M  V30 8 2 8 9
M  V30 9 1 9 10
M  V30 10 2 10 11
M  V30 11 1 11 12
M  V30 12 2 12 13
M  V30 13 1 13 14
M  V30 14 2 14 15
M  V30 15 1 15 16
M  V30 16 2 16 17
M  V30 17 1 17 18
M  V30 18 2 18 6
M  V30 19 1 18 10
M  V30 20 1 16 11
M  V30 21 1 1 19
M  V30 22 1 1 20
M  V30 23 1 1 21
M  V30 24 1 2 22
M  V30 25 1 2 23
M  V30 26 1 3 24
M  V30 27 1 3 25
M  V30 28 1 4 26
M  V30 29 1 4 27
M  V30 30 1 7 28
M  V30 31 1 8 29
M  V30 32 1 12 30
M  V30 33 1 13 31
M  V30 34 1 14 32
M  V30 35 1 15 33
M  V30 END BOND
M  V30 END CTAB
M  END
>  <Dataset>  (475) 
ChEMBL_Kinases

>  <Ligand_Instance>  (475) 
nan

>  <PDB_ID>  (475) 
nan

>  <Standardized_SMILES>  (475) 
CCCCOc1[nH]cnc2c3ccccc3nc1-2

>  <Name>  (475) 
nan

>  <Pocket>  (475) 
nan

>  <ATP_Site>  (475) 
nan

>  <Peripheral>  (475) 
nan

>  <Num_H_Atoms_ProtBoundConf>  (475) 
nan

>  <Num_Resolved_Atoms>  (475) 
nan

>  <Num_Not_Resolved_Atoms>  (475) 
nan

$$$$
CHEMBL1458559
     RDKit          3D

  0  0  0  0  0  0  0  0  0  0999 V3000
M  V30 BEGIN CTAB
M  V30 COUNTS 30 32 0 0 0
M  V30 BEGIN ATOM
M  V30 1 C -2.307601 -3.762272 1.489471 0
M  V30 2 C -1.158492 -4.057134 2.438237 0
M  V30 3 C 0.178478 -3.907776 1.745303 0
M  V30 4 C 0.362118 -2.526738 1.228799 0
M  V30 5 C -0.037990 -2.142828 -0.053874 0
M  V30 6 C 0.143884 -0.851549 -0.511618 0
M  V30 7 O -0.256137 -0.468316 -1.793580 0
M  V30 8 N 0.721641 0.060835 0.299067 0
M  V30 9 C 1.107080 -0.314582 1.538660 0
M  V30 10 N 0.940596 -1.566928 2.007617 0
M  V30 11 N 1.665036 0.744485 2.195240 0
M  V30 12 C 1.637079 1.818910 1.361787 0
M  V30 13 C 2.070578 3.119939 1.532369 0
M  V30 14 C 1.917806 4.039089 0.494064 0
M  V30 15 C 1.329779 3.556679 -0.647875 0
M  V30 16 C 0.885086 2.264391 -0.852920 0
M  V30 17 C 1.042304 1.365568 0.182174 0
M  V30 18 H -2.195907 -2.784895 0.990317 0
M  V30 19 H -2.435176 -4.564506 0.745803 0
M  V30 20 H -3.247771 -3.757473 2.078232 0
M  V30 21 H -1.213394 -3.370238 3.304871 0
M  V30 22 H -1.255800 -5.107707 2.772941 0
M  V30 23 H 0.373165 -4.678490 1.006461 0
M  V30 24 H 0.938925 -4.035643 2.570057 0
M  V30 25 H -0.498768 -2.866193 -0.703797 0
M  V30 26 H 0.099810 -0.957257 -2.603561 0
M  V30 27 H 2.529168 3.478255 2.435659 0
M  V30 28 H 2.246614 5.049446 0.606755 0
M  V30 29 H 1.192565 4.245653 -1.483474 0
M  V30 30 H 0.428198 1.960134 -1.790279 0
M  V30 END ATOM
M  V30 BEGIN BOND
M  V30 1 1 1 2
M  V30 2 1 2 3
M  V30 3 1 3 4
M  V30 4 1 4 5
M  V30 5 2 5 6
M  V30 6 1 6 7
M  V30 7 1 6 8
M  V30 8 1 8 9
M  V30 9 1 9 10
M  V30 10 2 9 11
M  V30 11 1 11 12
M  V30 12 2 12 13
M  V30 13 1 13 14
M  V30 14 2 14 15
M  V30 15 1 15 16
M  V30 16 2 16 17
M  V30 17 2 10 4
M  V30 18 1 17 12
M  V30 19 1 17 8
M  V30 20 1 1 18
M  V30 21 1 1 19
M  V30 22 1 1 20
M  V30 23 1 2 21
M  V30 24 1 2 22
M  V30 25 1 3 23
M  V30 26 1 3 24
M  V30 27 1 5 25
M  V30 28 1 7 26
M  V30 29 1 13 27
M  V30 30 1 14 28
M  V30 31 1 15 29
M  V30 32 1 16 30
M  V30 END BOND
M  V30 END CTAB
M  END
>  <Dataset>  (476) 
ChEMBL_Kinases

>  <Ligand_Instance>  (476) 
nan

>  <PDB_ID>  (476) 
nan

>  <Standardized_SMILES>  (476) 
CCCc1cc(O)n2c(n1)nc1ccccc12

>  <Name>  (476) 
nan

>  <Pocket>  (476) 
nan

>  <ATP_Site>  (476) 
nan

>  <Peripheral>  (476) 
nan

>  <Num_H_Atoms_ProtBoundConf>  (476) 
nan

>  <Num_Resolved_Atoms>  (476) 
nan

>  <Num_Not_Resolved_Atoms>  (476) 
nan

$$$$
CHEMBL1458077
     RDKit          3D

  0  0  0  0  0  0  0  0  0  0999 V3000
M  V30 BEGIN CTAB
M  V30 COUNTS 26 27 0 0 0
M  V30 BEGIN ATOM
M  V30 1 C 0.445961 -3.754662 4.911691 0
M  V30 2 C 0.211480 -2.892057 3.737628 0
M  V30 3 O -0.860320 -2.818802 3.084579 0
M  V30 4 N 1.342436 -2.087281 3.352286 0
M  V30 5 C 1.196730 -1.191253 2.184209 0
M  V30 6 C 2.059309 -0.350363 1.613689 0
M  V30 7 C 1.629417 0.334295 0.553540 0
M  V30 8 C 0.386297 0.150213 0.123796 0
M  V30 9 C -0.308200 0.813965 -1.050129 0
M  V30 10 C 0.394749 1.733659 -1.800672 0
M  V30 11 C -0.296668 2.298082 -2.851989 0
M  V30 12 C -1.613809 1.941038 -3.109979 0
M  V30 13 C -2.289819 1.016590 -2.339474 0
M  V30 14 C -1.615332 0.439664 -1.281828 0
M  V30 15 S -0.241841 -1.041999 1.245604 0
M  V30 16 H -0.515719 -4.019500 5.395606 0
M  V30 17 H 1.139205 -3.248801 5.641228 0
M  V30 18 H 0.940329 -4.719731 4.661154 0
M  V30 19 H 2.247879 -2.083825 3.824381 0
M  V30 20 H 3.065762 -0.292180 2.072290 0
M  V30 21 H 2.282978 1.053567 0.021198 0
M  V30 22 H 1.409130 1.982856 -1.570578 0
M  V30 23 H 0.245168 3.023601 -3.450752 0
M  V30 24 H -2.032047 2.465262 -3.968618 0
M  V30 25 H -3.313986 0.788826 -2.600833 0
M  V30 26 H -2.133129 -0.278090 -0.679885 0
M  V30 END ATOM
M  V30 BEGIN BOND
M  V30 1 1 1 2
M  V30 2 2 2 3
M  V30 3 1 2 4
M  V30 4 1 4 5
M  V30 5 2 5 6
M  V30 6 1 6 7
M  V30 7 2 7 8
M  V30 8 1 8 9
M  V30 9 2 9 10
M  V30 10 1 10 11
M  V30 11 2 11 12
M  V30 12 1 12 13
M  V30 13 2 13 14
M  V30 14 1 8 15
M  V30 15 1 15 5
M  V30 16 1 14 9
M  V30 17 1 1 16
M  V30 18 1 1 17
M  V30 19 1 1 18
M  V30 20 1 4 19
M  V30 21 1 6 20
M  V30 22 1 7 21
M  V30 23 1 10 22
M  V30 24 1 11 23
M  V30 25 1 12 24
M  V30 26 1 13 25
M  V30 27 1 14 26
M  V30 END BOND
M  V30 END CTAB
M  END
>  <Dataset>  (477) 
ChEMBL_Kinases

>  <Ligand_Instance>  (477) 
nan

>  <PDB_ID>  (477) 
nan

>  <Standardized_SMILES>  (477) 
CC(=O)Nc1ccc(-c2ccccc2)s1

>  <Name>  (477) 
nan

>  <Pocket>  (477) 
nan

>  <ATP_Site>  (477) 
nan

>  <Peripheral>  (477) 
nan

>  <Num_H_Atoms_ProtBoundConf>  (477) 
nan

>  <Num_Resolved_Atoms>  (477) 
nan

>  <Num_Not_Resolved_Atoms>  (477) 
nan

$$$$
CHEMBL1457964
     RDKit          3D

  0  0  0  0  0  0  0  0  0  0999 V3000
M  V30 BEGIN CTAB
M  V30 COUNTS 42 43 0 0 0
M  V30 BEGIN ATOM
M  V30 1 C 5.928536 -5.458328 0.794568 0
M  V30 2 O 5.806881 -4.069733 0.577802 0
M  V30 3 C 4.540211 -3.510086 0.657505 0
M  V30 4 C 3.362899 -4.209066 0.934374 0
M  V30 5 C 2.151736 -3.579529 0.997222 0
M  V30 6 C 1.999460 -2.220676 0.793993 0
M  V30 7 C 0.625194 -1.682448 0.901967 0
M  V30 8 C -0.218222 -2.623270 1.780841 0
M  V30 9 N 0.711454 -0.419767 1.630165 0
M  V30 10 C 0.044517 0.645176 1.007965 0
M  V30 11 O -0.588117 0.521016 -0.102148 0
M  V30 12 C -0.010069 2.047607 1.560122 0
M  V30 13 O -0.763703 2.856489 0.699232 0
M  V30 14 C -2.091430 2.603950 0.490596 0
M  V30 15 C -2.864316 1.616055 1.054048 0
M  V30 16 C -4.200915 1.393935 0.821099 0
M  V30 17 C -4.843513 2.247125 -0.069588 0
M  V30 18 Cl -6.557008 1.917548 -0.329749 0
M  V30 19 C -4.124000 3.256700 -0.666843 0
M  V30 20 C -2.785073 3.427353 -0.391645 0
M  V30 21 N -2.122894 4.505317 -1.060490 0 CHG=1 VAL=4
M  V30 22 O -2.733786 5.526806 -1.430340 0
M  V30 23 O -0.777836 4.469660 -1.329721 0 CHG=-1 VAL=1
M  V30 24 C 3.122055 -1.500203 0.520214 0
M  V30 25 C 4.355970 -2.137999 0.456087 0
M  V30 26 H 5.359339 -5.832866 1.665761 0
M  V30 27 H 5.511911 -5.984449 -0.105947 0
M  V30 28 H 7.031507 -5.659807 0.913890 0
M  V30 29 H 3.490962 -5.275078 1.090763 0
M  V30 30 H 1.329895 -4.259683 1.220971 0
M  V30 31 H 0.100808 -1.559523 -0.043977 0
M  V30 32 H -0.978129 -1.991712 2.247982 0
M  V30 33 H 0.447774 -3.030013 2.557631 0
M  V30 34 H -0.587378 -3.443096 1.152028 0
M  V30 35 H 1.205962 -0.262510 2.528602 0
M  V30 36 H -0.424337 2.022088 2.586083 0
M  V30 37 H 1.030127 2.445310 1.559828 0
M  V30 38 H -2.399172 0.934440 1.776739 0
M  V30 39 H -4.724245 0.570256 1.328195 0
M  V30 40 H -4.732593 3.848128 -1.334430 0
M  V30 41 H 3.022638 -0.450023 0.359248 0
M  V30 42 H 5.211791 -1.487641 0.231072 0
M  V30 END ATOM
M  V30 BEGIN BOND
M  V30 1 1 1 2
M  V30 2 1 2 3
M  V30 3 2 3 4
M  V30 4 1 4 5
M  V30 5 2 5 6
M  V30 6 1 6 7
M  V30 7 1 7 8
M  V30 8 1 7 9
M  V30 9 1 9 10
M  V30 10 2 10 11
M  V30 11 1 10 12
M  V30 12 1 12 13
M  V30 13 1 13 14
M  V30 14 2 14 15
M  V30 15 1 15 16
M  V30 16 2 16 17
M  V30 17 1 17 18
M  V30 18 1 17 19
M  V30 19 2 19 20
M  V30 20 1 20 21
M  V30 21 2 21 22
M  V30 22 1 21 23
M  V30 23 1 6 24
M  V30 24 2 24 25
M  V30 25 1 25 3
M  V30 26 1 20 14
M  V30 27 1 1 26
M  V30 28 1 1 27
M  V30 29 1 1 28
M  V30 30 1 4 29
M  V30 31 1 5 30
M  V30 32 1 7 31
M  V30 33 1 8 32
M  V30 34 1 8 33
M  V30 35 1 8 34
M  V30 36 1 9 35
M  V30 37 1 12 36
M  V30 38 1 12 37
M  V30 39 1 15 38
M  V30 40 1 16 39
M  V30 41 1 19 40
M  V30 42 1 24 41
M  V30 43 1 25 42
M  V30 END BOND
M  V30 END CTAB
M  END
>  <Dataset>  (478) 
ChEMBL_Kinases

>  <Ligand_Instance>  (478) 
nan

>  <PDB_ID>  (478) 
nan

>  <Standardized_SMILES>  (478) 
COc1ccc(C(C)NC(=O)COc2ccc(Cl)cc2[N+](=O)[O-])cc1

>  <Name>  (478) 
nan

>  <Pocket>  (478) 
nan

>  <ATP_Site>  (478) 
nan

>  <Peripheral>  (478) 
nan

>  <Num_H_Atoms_ProtBoundConf>  (478) 
nan

>  <Num_Resolved_Atoms>  (478) 
nan

>  <Num_Not_Resolved_Atoms>  (478) 
nan

$$$$
CHEMBL1457783
     RDKit          3D

  0  0  0  0  0  0  0  0  0  0999 V3000
M  V30 BEGIN CTAB
M  V30 COUNTS 30 33 0 0 0
M  V30 BEGIN ATOM
M  V30 1 C 0.533132 -4.294713 4.378119 0
M  V30 2 C -0.215022 -3.165646 4.138255 0
M  V30 3 C 0.085326 -2.406292 3.037990 0
M  V30 4 C 1.063341 -2.634737 2.120354 0
M  V30 5 C 1.450132 -1.908381 0.940194 0
M  V30 6 O 2.454506 -2.266229 0.163713 0
M  V30 7 N 2.627683 -1.487952 -0.826989 0
M  V30 8 C 1.732810 -0.487691 -0.830454 0
M  V30 9 C 1.428222 0.610869 -1.607233 0
M  V30 10 C 0.384553 1.449503 -1.279455 0
M  V30 11 C -0.351203 1.149650 -0.137956 0
M  V30 12 C -0.025956 0.049809 0.616798 0
M  V30 13 C 1.007494 -0.785094 0.297115 0
M  V30 14 O -1.380905 2.052300 0.108406 0
M  V30 15 C -2.034323 2.811340 -0.860656 0
M  V30 16 C -1.311647 2.952246 -2.159751 0
M  V30 17 O 0.062556 2.561980 -2.050614 0
M  V30 18 C 1.766775 -3.780947 2.429569 0
M  V30 19 C 1.544738 -4.605117 3.502353 0
M  V30 20 H 0.345563 -4.933192 5.227250 0
M  V30 21 H -1.011421 -2.902113 4.808823 0
M  V30 22 H -0.533591 -1.558581 2.929994 0
M  V30 23 H 2.035705 0.789913 -2.479765 0
M  V30 24 H -0.656939 -0.076657 1.459120 0
M  V30 25 H -2.251702 3.804126 -0.386280 0
M  V30 26 H -3.040465 2.349138 -1.018425 0
M  V30 27 H -1.401036 3.993785 -2.520846 0
M  V30 28 H -1.831647 2.329494 -2.920752 0
M  V30 29 H 2.603162 -4.139338 1.805829 0
M  V30 30 H 2.123032 -5.488615 3.698197 0
M  V30 END ATOM
M  V30 BEGIN BOND
M  V30 1 2 1 2
M  V30 2 1 2 3
M  V30 3 2 3 4
M  V30 4 1 4 5
M  V30 5 1 5 6
M  V30 6 1 6 7
M  V30 7 2 7 8
M  V30 8 1 8 9
M  V30 9 2 9 10
M  V30 10 1 10 11
M  V30 11 2 11 12
M  V30 12 1 12 13
M  V30 13 1 11 14
M  V30 14 1 14 15
M  V30 15 1 15 16
M  V30 16 1 16 17
M  V30 17 1 4 18
M  V30 18 2 18 19
M  V30 19 1 19 1
M  V30 20 2 13 5
M  V30 21 1 13 8
M  V30 22 1 17 10
M  V30 23 1 1 20
M  V30 24 1 2 21
M  V30 25 1 3 22
M  V30 26 1 9 23
M  V30 27 1 12 24
M  V30 28 1 15 25
M  V30 29 1 15 26
M  V30 30 1 16 27
M  V30 31 1 16 28
M  V30 32 1 18 29
M  V30 33 1 19 30
M  V30 END BOND
M  V30 END CTAB
M  END
>  <Dataset>  (479) 
ChEMBL_Kinases

>  <Ligand_Instance>  (479) 
nan

>  <PDB_ID>  (479) 
nan

>  <Standardized_SMILES>  (479) 
c1ccc(-c2onc3cc4c(cc23)OCCO4)cc1

>  <Name>  (479) 
nan

>  <Pocket>  (479) 
nan

>  <ATP_Site>  (479) 
nan

>  <Peripheral>  (479) 
nan

>  <Num_H_Atoms_ProtBoundConf>  (479) 
nan

>  <Num_Resolved_Atoms>  (479) 
nan

>  <Num_Not_Resolved_Atoms>  (479) 
nan

$$$$
CHEMBL1457774
     RDKit          3D

  0  0  0  0  0  0  0  0  0  0999 V3000
M  V30 BEGIN CTAB
M  V30 COUNTS 38 41 0 0 0
M  V30 BEGIN ATOM
M  V30 1 C -0.003997 -3.685233 2.641719 0
M  V30 2 C 1.490218 -3.569838 2.835145 0
M  V30 3 C 1.861860 -2.120159 3.129993 0
M  V30 4 N 1.444421 -1.310316 2.005147 0
M  V30 5 N 2.257451 -1.083592 0.977416 0
M  V30 6 C 1.615209 -0.299182 0.070175 0
M  V30 7 C 2.022759 0.250140 -1.222397 0
M  V30 8 C 1.117301 0.162694 -2.277398 0
M  V30 9 C 1.495475 0.681449 -3.508193 0
M  V30 10 C 2.730267 1.270016 -3.696122 0
M  V30 11 C 3.627550 1.350565 -2.629479 0
M  V30 12 C 3.272712 0.838572 -1.387130 0
M  V30 13 C 0.365152 -0.063469 0.607827 0
M  V30 14 N -0.709122 0.631933 0.190578 0
M  V30 15 C -1.844637 0.716325 0.910433 0
M  V30 16 C -2.960969 1.425552 0.500758 0
M  V30 17 C -4.109814 1.495983 1.255747 0
M  V30 18 C -4.109065 0.822671 2.456496 0
M  V30 19 C -3.041743 0.094130 2.938191 0
M  V30 20 C -1.920955 0.070375 2.121434 0
M  V30 21 N -0.867932 -0.642406 2.585977 0
M  V30 22 C 0.244727 -0.696498 1.829578 0
M  V30 23 H -0.218310 -4.779664 2.606815 0
M  V30 24 H -0.587769 -3.283119 3.473964 0
M  V30 25 H -0.263150 -3.218240 1.669426 0
M  V30 26 H 1.782527 -4.175329 3.720425 0
M  V30 27 H 1.980350 -3.912004 1.904174 0
M  V30 28 H 2.928928 -2.041519 3.365409 0
M  V30 29 H 1.284585 -1.840044 4.044794 0
M  V30 30 H 0.163672 -0.299293 -2.106494 0
M  V30 31 H 0.766956 0.599217 -4.315806 0
M  V30 32 H 3.000668 1.663705 -4.655017 0
M  V30 33 H 4.591487 1.820561 -2.812639 0
M  V30 34 H 3.960282 0.900587 -0.570841 0
M  V30 35 H -2.874767 1.929561 -0.464571 0
M  V30 36 H -4.966527 2.050732 0.922678 0
M  V30 37 H -5.003790 0.857018 3.081046 0
M  V30 38 H -3.047290 -0.433013 3.882921 0
M  V30 END ATOM
M  V30 BEGIN BOND
M  V30 1 1 1 2
M  V30 2 1 2 3
M  V30 3 1 3 4
M  V30 4 1 4 5
M  V30 5 2 5 6
M  V30 6 1 6 7
M  V30 7 2 7 8
M  V30 8 1 8 9
M  V30 9 2 9 10
M  V30 10 1 10 11
M  V30 11 2 11 12
M  V30 12 1 6 13
M  V30 13 2 13 14
M  V30 14 1 14 15
M  V30 15 2 15 16
M  V30 16 1 16 17
M  V30 17 2 17 18
M  V30 18 1 18 19
M  V30 19 2 19 20
M  V30 20 1 20 21
M  V30 21 2 21 22
M  V30 22 1 22 4
M  V30 23 1 12 7
M  V30 24 1 22 13
M  V30 25 1 20 15
M  V30 26 1 1 23
M  V30 27 1 1 24
M  V30 28 1 1 25
M  V30 29 1 2 26
M  V30 30 1 2 27
M  V30 31 1 3 28
M  V30 32 1 3 29
M  V30 33 1 8 30
M  V30 34 1 9 31
M  V30 35 1 10 32
M  V30 36 1 11 33
M  V30 37 1 12 34
M  V30 38 1 16 35
M  V30 39 1 17 36
M  V30 40 1 18 37
M  V30 41 1 19 38
M  V30 END BOND
M  V30 END CTAB
M  END
>  <Dataset>  (480) 
ChEMBL_Kinases

>  <Ligand_Instance>  (480) 
nan

>  <PDB_ID>  (480) 
nan

>  <Standardized_SMILES>  (480) 
CCCn1nc(-c2ccccc2)c2nc3ccccc3nc21

>  <Name>  (480) 
nan

>  <Pocket>  (480) 
nan

>  <ATP_Site>  (480) 
nan

>  <Peripheral>  (480) 
nan

>  <Num_H_Atoms_ProtBoundConf>  (480) 
nan

>  <Num_Resolved_Atoms>  (480) 
nan

>  <Num_Not_Resolved_Atoms>  (480) 
nan

$$$$
CHEMBL1457753
     RDKit          3D

  0  0  0  0  0  0  0  0  0  0999 V3000
M  V30 BEGIN CTAB
M  V30 COUNTS 54 57 0 0 0
M  V30 BEGIN ATOM
M  V30 1 C -1.409093 2.540514 4.693111 0
M  V30 2 C -0.534567 1.482621 5.278342 0
M  V30 3 O -0.112564 0.563392 4.262693 0
M  V30 4 C 0.702571 -0.493287 4.598609 0
M  V30 5 O 0.795090 -0.236557 5.847896 0
M  V30 6 C 1.236715 -1.530687 3.699905 0
M  V30 7 C 2.088796 -0.943361 2.596889 0
M  V30 8 C 1.609890 -1.354641 1.238650 0
M  V30 9 N 0.238668 -1.073361 1.053737 0
M  V30 10 S -0.119716 0.483437 0.417005 0
M  V30 11 O -1.414034 1.054868 0.716248 0
M  V30 12 O 0.789042 1.379347 1.312186 0
M  V30 13 C 0.575985 0.702592 -1.158475 0
M  V30 14 C 1.399759 1.804831 -1.473862 0
M  V30 15 C 1.977471 2.064877 -2.690348 0
M  V30 16 Br 3.062431 3.627590 -2.892545 0
M  V30 17 C 1.745670 1.188216 -3.700571 0
M  V30 18 C 0.956482 0.090885 -3.477422 0
M  V30 19 C 0.388748 -0.150708 -2.255714 0
M  V30 20 N -0.359371 -1.354831 -2.287782 0
M  V30 21 C -1.511282 -1.748707 -1.555134 0
M  V30 22 O -2.309861 -1.239735 -0.743288 0
M  V30 23 C -1.980321 -3.171005 -1.745319 0
M  V30 24 C -2.667804 -3.887310 -0.635685 0
M  V30 25 C -3.462974 -3.449329 -1.839878 0
M  V30 26 C 0.322306 -2.146154 -3.320360 0
M  V30 27 C 0.536564 -1.028031 -4.356807 0
M  V30 28 C -0.588285 -1.531568 2.086829 0
M  V30 29 C 0.147218 -2.382204 3.083122 0
M  V30 30 H -2.470284 2.251560 4.615671 0
M  V30 31 H -1.087993 2.876458 3.674793 0
M  V30 32 H -1.339594 3.481546 5.312083 0
M  V30 33 H 0.360530 2.015795 5.703899 0
M  V30 34 H -1.064775 0.893135 6.032142 0
M  V30 35 H 1.860381 -2.206776 4.303316 0
M  V30 36 H 3.149696 -1.308762 2.779131 0
M  V30 37 H 2.114230 0.143617 2.695442 0
M  V30 38 H 1.729651 -2.480578 1.166286 0
M  V30 39 H 2.255479 -0.899259 0.431167 0
M  V30 40 H 1.586442 2.505968 -0.672123 0
M  V30 41 H 2.212288 1.414461 -4.648420 0
M  V30 42 H -1.404336 -3.833539 -2.427939 0
M  V30 43 H -2.967548 -3.386610 0.285622 0
M  V30 44 H -2.470318 -4.978656 -0.480685 0
M  V30 45 H -3.838229 -4.251045 -2.470549 0
M  V30 46 H -4.171250 -2.606228 -1.735792 0
M  V30 47 H -0.378437 -2.840433 -3.785954 0
M  V30 48 H 1.264112 -2.552160 -2.958226 0
M  V30 49 H 1.393253 -1.290661 -4.981231 0
M  V30 50 H -0.383353 -0.824324 -4.910507 0
M  V30 51 H -1.163099 -0.713617 2.599625 0
M  V30 52 H -1.446662 -2.170369 1.671151 0
M  V30 53 H 0.584750 -3.257299 2.581839 0
M  V30 54 H -0.537513 -2.767368 3.875926 0
M  V30 END ATOM
M  V30 BEGIN BOND
M  V30 1 1 1 2
M  V30 2 1 2 3
M  V30 3 1 3 4
M  V30 4 2 4 5
M  V30 5 1 4 6
M  V30 6 1 6 7
M  V30 7 1 7 8
M  V30 8 1 8 9
M  V30 9 1 9 10
M  V30 10 2 10 11
M  V30 11 2 10 12
M  V30 12 1 10 13
M  V30 13 2 13 14
M  V30 14 1 14 15
M  V30 15 1 15 16
M  V30 16 2 15 17
M  V30 17 1 17 18
M  V30 18 2 18 19
M  V30 19 1 19 20
M  V30 20 1 20 21
M  V30 21 2 21 22
M  V30 22 1 21 23
M  V30 23 1 23 24
M  V30 24 1 24 25
M  V30 25 1 20 26
M  V30 26 1 26 27
M  V30 27 1 9 28
M  V30 28 1 28 29
M  V30 29 1 29 6
M  V30 30 1 19 13
M  V30 31 1 25 23
M  V30 32 1 27 18
M  V30 33 1 1 30
M  V30 34 1 1 31
M  V30 35 1 1 32
M  V30 36 1 2 33
M  V30 37 1 2 34
M  V30 38 1 6 35
M  V30 39 1 7 36
M  V30 40 1 7 37
M  V30 41 1 8 38
M  V30 42 1 8 39
M  V30 43 1 14 40
M  V30 44 1 17 41
M  V30 45 1 23 42
M  V30 46 1 24 43
M  V30 47 1 24 44
M  V30 48 1 25 45
M  V30 49 1 25 46
M  V30 50 1 26 47
M  V30 51 1 26 48
M  V30 52 1 27 49
M  V30 53 1 27 50
M  V30 54 1 28 51
M  V30 55 1 28 52
M  V30 56 1 29 53
M  V30 57 1 29 54
M  V30 END BOND
M  V30 END CTAB
M  END
>  <Dataset>  (481) 
ChEMBL_Kinases

>  <Ligand_Instance>  (481) 
nan

>  <PDB_ID>  (481) 
nan

>  <Standardized_SMILES>  (481) 
CCOC(=O)C1CCN(S(=O)(=O)c2cc(Br)cc3c2N(C(=O)C2CC2)CC3)CC1

>  <Name>  (481) 
nan

>  <Pocket>  (481) 
nan

>  <ATP_Site>  (481) 
nan

>  <Peripheral>  (481) 
nan

>  <Num_H_Atoms_ProtBoundConf>  (481) 
nan

>  <Num_Resolved_Atoms>  (481) 
nan

>  <Num_Not_Resolved_Atoms>  (481) 
nan

$$$$
CHEMBL1457544
     RDKit          3D

  0  0  0  0  0  0  0  0  0  0999 V3000
M  V30 BEGIN CTAB
M  V30 COUNTS 48 51 0 0 0
M  V30 BEGIN ATOM
M  V30 1 C 0.526447 -4.548318 4.045998 0
M  V30 2 O 1.149107 -3.301735 4.146790 0
M  V30 3 C 1.495814 -2.474895 3.105412 0
M  V30 4 C 2.109278 -1.269670 3.394486 0
M  V30 5 C 2.455586 -0.442344 2.342400 0
M  V30 6 C 2.224551 -0.747363 1.002449 0
M  V30 7 N 2.653094 0.232889 0.060243 0
M  V30 8 C 3.984885 0.447755 -0.100691 0
M  V30 9 O 4.869042 -0.165931 0.531627 0
M  V30 10 C 4.414654 1.404005 -1.019400 0
M  V30 11 C 5.861169 1.677166 -1.233088 0
M  V30 12 N 3.510807 2.114213 -1.746771 0
M  V30 13 C 2.220796 1.866253 -1.551955 0
M  V30 14 C 1.276032 2.565191 -2.269844 0
M  V30 15 N -0.014179 2.312180 -2.070123 0
M  V30 16 C -0.506167 1.408543 -1.205129 0
M  V30 17 N -1.903670 1.230436 -1.082580 0
M  V30 18 C -2.596635 0.338826 -0.236730 0
M  V30 19 C -2.047378 -0.551817 0.654131 0
M  V30 20 C -2.730425 -1.407837 1.465544 0
M  V30 21 C -4.107180 -1.395888 1.402915 0
M  V30 22 C -4.723425 -0.532014 0.535740 0
M  V30 23 O -6.106596 -0.511286 0.464296 0
M  V30 24 C -6.868789 -1.389084 1.294128 0
M  V30 25 C -3.973477 0.302462 -0.252140 0
M  V30 26 N 0.433173 0.743220 -0.520289 0
M  V30 27 C 1.752407 0.931696 -0.655871 0
M  V30 28 C 1.610634 -1.955701 0.731546 0
M  V30 29 C 1.255843 -2.798401 1.768950 0
M  V30 30 H -0.587245 -4.401993 3.997343 0
M  V30 31 H 0.788587 -5.143630 3.160436 0
M  V30 32 H 0.698582 -5.101844 5.004961 0
M  V30 33 H 2.317913 -0.971194 4.414097 0
M  V30 34 H 2.939261 0.501708 2.621365 0
M  V30 35 H 6.052322 2.763878 -1.311733 0
M  V30 36 H 6.253930 1.186584 -2.127781 0
M  V30 37 H 6.454120 1.299769 -0.367115 0
M  V30 38 H 1.512490 3.320244 -2.999041 0
M  V30 39 H -2.503622 1.841399 -1.701830 0
M  V30 40 H -0.974929 -0.601850 0.742720 0
M  V30 41 H -2.252569 -2.084346 2.144460 0
M  V30 42 H -4.671840 -2.065945 2.036911 0
M  V30 43 H -7.949577 -1.159251 1.202057 0
M  V30 44 H -6.518045 -1.257640 2.351170 0
M  V30 45 H -6.733105 -2.454652 1.013625 0
M  V30 46 H -4.536589 0.968953 -0.924426 0
M  V30 47 H 1.448659 -2.157529 -0.307126 0
M  V30 48 H 0.780283 -3.732425 1.542588 0
M  V30 END ATOM
M  V30 BEGIN BOND
M  V30 1 1 1 2
M  V30 2 1 2 3
M  V30 3 2 3 4
M  V30 4 1 4 5
M  V30 5 2 5 6
M  V30 6 1 6 7
M  V30 7 1 7 8
M  V30 8 2 8 9
M  V30 9 1 8 10
M  V30 10 1 10 11
M  V30 11 2 10 12
M  V30 12 1 12 13
M  V30 13 2 13 14
M  V30 14 1 14 15
M  V30 15 2 15 16
M  V30 16 1 16 17
M  V30 17 1 17 18
M  V30 18 2 18 19
M  V30 19 1 19 20
M  V30 20 2 20 21
M  V30 21 1 21 22
M  V30 22 1 22 23
M  V30 23 1 23 24
M  V30 24 2 22 25
M  V30 25 1 16 26
M  V30 26 2 26 27
M  V30 27 1 6 28
M  V30 28 2 28 29
M  V30 29 1 29 3
M  V30 30 1 27 7
M  V30 31 1 27 13
M  V30 32 1 25 18
M  V30 33 1 1 30
M  V30 34 1 1 31
M  V30 35 1 1 32
M  V30 36 1 4 33
M  V30 37 1 5 34
M  V30 38 1 11 35
M  V30 39 1 11 36
M  V30 40 1 11 37
M  V30 41 1 14 38
M  V30 42 1 17 39
M  V30 43 1 19 40
M  V30 44 1 20 41
M  V30 45 1 21 42
M  V30 46 1 24 43
M  V30 47 1 24 44
M  V30 48 1 24 45
M  V30 49 1 25 46
M  V30 50 1 28 47
M  V30 51 1 29 48
M  V30 END BOND
M  V30 END CTAB
M  END
>  <Dataset>  (482) 
ChEMBL_Kinases

>  <Ligand_Instance>  (482) 
nan

>  <PDB_ID>  (482) 
nan

>  <Standardized_SMILES>  (482) 
COc1ccc(-n2c(=O)c(C)nc3cnc(Nc4cccc(OC)c4)nc32)cc1

>  <Name>  (482) 
nan

>  <Pocket>  (482) 
nan

>  <ATP_Site>  (482) 
nan

>  <Peripheral>  (482) 
nan

>  <Num_H_Atoms_ProtBoundConf>  (482) 
nan

>  <Num_Resolved_Atoms>  (482) 
nan

>  <Num_Not_Resolved_Atoms>  (482) 
nan

$$$$
CHEMBL1457420
     RDKit          3D

  0  0  0  0  0  0  0  0  0  0999 V3000
M  V30 BEGIN CTAB
M  V30 COUNTS 44 48 0 0 0
M  V30 BEGIN ATOM
M  V30 1 O -3.557929 -3.922274 0.907920 0
M  V30 2 C -2.378246 -3.470833 0.870289 0
M  V30 3 C -1.253862 -4.358135 1.149598 0
M  V30 4 C -1.490148 -5.698903 1.456226 0
M  V30 5 C -0.395949 -6.504506 1.714187 0
M  V30 6 C 0.900410 -6.031168 1.678276 0
M  V30 7 C 1.157365 -4.698742 1.374876 0
M  V30 8 C 0.050236 -3.912244 1.120714 0
M  V30 9 C 0.305905 -2.512080 0.801032 0
M  V30 10 O 1.492475 -2.067435 0.765436 0
M  V30 11 C -0.810236 -1.594321 0.514929 0
M  V30 12 C -2.122109 -2.062206 0.548610 0
M  V30 13 C -3.146778 -1.185964 0.277889 0
M  V30 14 C -2.906650 0.144472 -0.026046 0
M  V30 15 C -1.590520 0.615066 -0.060121 0
M  V30 16 C -0.987938 1.829296 -0.314640 0
M  V30 17 O -1.683057 2.988547 -0.633407 0
M  V30 18 N 0.343527 1.673347 -0.197924 0
M  V30 19 C 1.355501 2.673483 -0.376809 0
M  V30 20 C 1.421576 3.571919 0.833502 0
M  V30 21 C 2.053434 2.872352 2.015352 0
M  V30 22 C 3.436854 2.447661 1.639376 0
M  V30 23 C 3.364830 1.456662 0.493418 0
M  V30 24 C 2.706424 2.091214 -0.703306 0
M  V30 25 N 0.612028 0.432513 0.114912 0
M  V30 26 C -0.540597 -0.268869 0.213947 0
M  V30 27 H -2.518463 -6.026143 1.473177 0
M  V30 28 H -0.571913 -7.545010 1.952585 0
M  V30 29 H 1.740332 -6.687734 1.885419 0
M  V30 30 H 2.153877 -4.290086 1.336556 0
M  V30 31 H -4.185845 -1.531872 0.298660 0
M  V30 32 H -3.717605 0.844645 -0.241905 0
M  V30 33 H -2.253766 3.414865 0.073005 0
M  V30 34 H 1.048839 3.315790 -1.237338 0
M  V30 35 H 0.410873 3.888781 1.096804 0
M  V30 36 H 2.108623 4.421470 0.568574 0
M  V30 37 H 1.430556 2.053339 2.398111 0
M  V30 38 H 2.150608 3.658202 2.806583 0
M  V30 39 H 3.961253 1.957557 2.491153 0
M  V30 40 H 4.008252 3.313865 1.292549 0
M  V30 41 H 2.897513 0.506677 0.798623 0
M  V30 42 H 4.427397 1.263537 0.201595 0
M  V30 43 H 2.606572 1.334196 -1.478939 0
M  V30 44 H 3.364239 2.928252 -1.015862 0
M  V30 END ATOM
M  V30 BEGIN BOND
M  V30 1 2 1 2
M  V30 2 1 2 3
M  V30 3 2 3 4
M  V30 4 1 4 5
M  V30 5 2 5 6
M  V30 6 1 6 7
M  V30 7 2 7 8
M  V30 8 1 8 9
M  V30 9 2 9 10
M  V30 10 1 9 11
M  V30 11 2 11 12
M  V30 12 1 12 13
M  V30 13 2 13 14
M  V30 14 1 14 15
M  V30 15 2 15 16
M  V30 16 1 16 17
M  V30 17 1 16 18
M  V30 18 1 18 19
M  V30 19 1 19 20
M  V30 20 1 20 21
M  V30 21 1 21 22
M  V30 22 1 22 23
M  V30 23 1 23 24
M  V30 24 1 18 25
M  V30 25 2 25 26
M  V30 26 1 12 2
M  V30 27 1 26 15
M  V30 28 1 8 3
M  V30 29 1 26 11
M  V30 30 1 24 19
M  V30 31 1 4 27
M  V30 32 1 5 28
M  V30 33 1 6 29
M  V30 34 1 7 30
M  V30 35 1 13 31
M  V30 36 1 14 32
M  V30 37 1 17 33
M  V30 38 1 19 34
M  V30 39 1 20 35
M  V30 40 1 20 36
M  V30 41 1 21 37
M  V30 42 1 21 38
M  V30 43 1 22 39
M  V30 44 1 22 40
M  V30 45 1 23 41
M  V30 46 1 23 42
M  V30 47 1 24 43
M  V30 48 1 24 44
M  V30 END BOND
M  V30 END CTAB
M  END
>  <Dataset>  (483) 
ChEMBL_Kinases

>  <Ligand_Instance>  (483) 
nan

>  <PDB_ID>  (483) 
nan

>  <Standardized_SMILES>  (483) 
O=C1c2ccccc2C(=O)c2c1ccc1c(O)n(C3CCCCC3)nc21

>  <Name>  (483) 
nan

>  <Pocket>  (483) 
nan

>  <ATP_Site>  (483) 
nan

>  <Peripheral>  (483) 
nan

>  <Num_H_Atoms_ProtBoundConf>  (483) 
nan

>  <Num_Resolved_Atoms>  (483) 
nan

>  <Num_Not_Resolved_Atoms>  (483) 
nan

$$$$
CHEMBL1457348
     RDKit          3D

  0  0  0  0  0  0  0  0  0  0999 V3000
M  V30 BEGIN CTAB
M  V30 COUNTS 42 44 0 0 0
M  V30 BEGIN ATOM
M  V30 1 C 4.348829 -3.805589 1.059969 0
M  V30 2 C 5.118082 -2.512576 1.079743 0
M  V30 3 S 3.984721 -1.158241 1.361765 0
M  V30 4 C 2.852700 -0.942283 -0.004185 0
M  V30 5 N 2.781632 -1.649915 -1.131893 0
M  V30 6 C 1.796084 -1.180613 -1.923520 0
M  V30 7 C 1.242616 -1.455488 -3.146262 0
M  V30 8 C 0.189886 -0.748793 -3.695963 0
M  V30 9 C -0.344625 0.309475 -2.965142 0
M  V30 10 C 0.221919 0.574548 -1.736914 0
M  V30 11 C 1.282080 -0.137072 -1.183015 0
M  V30 12 N 1.911458 0.040678 0.012179 0
M  V30 13 C 1.557955 1.069854 0.970474 0
M  V30 14 C 0.532922 0.569750 1.913333 0
M  V30 15 N 0.772469 -0.024603 3.094139 0
M  V30 16 C -0.252212 -0.450867 3.889542 0
M  V30 17 N 0.110217 -1.066747 5.118525 0
M  V30 18 N -1.504887 -0.252479 3.444315 0
M  V30 19 C -1.783066 0.335774 2.273814 0
M  V30 20 N -3.105957 0.527848 1.837866 0
M  V30 21 C -4.182209 0.075573 2.698290 0
M  V30 22 C -3.373896 1.160972 0.558581 0
M  V30 23 N -0.745827 0.735840 1.530789 0
M  V30 24 H 4.545595 -4.428524 1.974994 0
M  V30 25 H 3.246102 -3.676503 1.019782 0
M  V30 26 H 4.625669 -4.426954 0.183133 0
M  V30 27 H 5.755832 -2.389465 0.171760 0
M  V30 28 H 5.823043 -2.532426 1.952375 0
M  V30 29 H 1.666318 -2.282586 -3.708805 0
M  V30 30 H -0.208028 -1.011625 -4.669331 0
M  V30 31 H -1.164805 0.885202 -3.357959 0
M  V30 32 H -0.242016 1.419736 -1.206514 0
M  V30 33 H 1.205362 1.946163 0.390839 0
M  V30 34 H 2.498895 1.324469 1.536078 0
M  V30 35 H -0.102588 -0.431930 5.921911 0
M  V30 36 H 0.525839 -1.968890 5.439129 0
M  V30 37 H -4.202524 -1.042685 2.679576 0
M  V30 38 H -5.144199 0.486987 2.315877 0
M  V30 39 H -4.018017 0.454014 3.748887 0
M  V30 40 H -2.869754 2.138925 0.450867 0
M  V30 41 H -4.473618 1.219502 0.409897 0
M  V30 42 H -3.013106 0.508999 -0.277211 0
M  V30 END ATOM
M  V30 BEGIN BOND
M  V30 1 1 1 2
M  V30 2 1 2 3
M  V30 3 1 3 4
M  V30 4 2 4 5
M  V30 5 1 5 6
M  V30 6 2 6 7
M  V30 7 1 7 8
M  V30 8 2 8 9
M  V30 9 1 9 10
M  V30 10 2 10 11
M  V30 11 1 11 12
M  V30 12 1 12 13
M  V30 13 1 13 14
M  V30 14 2 14 15
M  V30 15 1 15 16
M  V30 16 1 16 17
M  V30 17 2 16 18
M  V30 18 1 18 19
M  V30 19 1 19 20
M  V30 20 1 20 21
M  V30 21 1 20 22
M  V30 22 2 19 23
M  V30 23 1 12 4
M  V30 24 1 23 14
M  V30 25 1 11 6
M  V30 26 1 1 24
M  V30 27 1 1 25
M  V30 28 1 1 26
M  V30 29 1 2 27
M  V30 30 1 2 28
M  V30 31 1 7 29
M  V30 32 1 8 30
M  V30 33 1 9 31
M  V30 34 1 10 32
M  V30 35 1 13 33
M  V30 36 1 13 34
M  V30 37 1 17 35
M  V30 38 1 17 36
M  V30 39 1 21 37
M  V30 40 1 21 38
M  V30 41 1 21 39
M  V30 42 1 22 40
M  V30 43 1 22 41
M  V30 44 1 22 42
M  V30 END BOND
M  V30 END CTAB
M  END
>  <Dataset>  (484) 
ChEMBL_Kinases

>  <Ligand_Instance>  (484) 
nan

>  <PDB_ID>  (484) 
nan

>  <Standardized_SMILES>  (484) 
CCSc1nc2ccccc2n1Cc1nc(N)nc(N(C)C)n1

>  <Name>  (484) 
nan

>  <Pocket>  (484) 
nan

>  <ATP_Site>  (484) 
nan

>  <Peripheral>  (484) 
nan

>  <Num_H_Atoms_ProtBoundConf>  (484) 
nan

>  <Num_Resolved_Atoms>  (484) 
nan

>  <Num_Not_Resolved_Atoms>  (484) 
nan

$$$$
CHEMBL1457147
     RDKit          3D

  0  0  0  0  0  0  0  0  0  0999 V3000
M  V30 BEGIN CTAB
M  V30 COUNTS 37 39 0 0 0
M  V30 BEGIN ATOM
M  V30 1 C -1.480933 -2.138134 -1.057963 0
M  V30 2 C -0.156294 -1.626639 -0.703448 0
M  V30 3 N 0.962656 -2.292086 -1.055400 0
M  V30 4 N 2.020979 -1.601711 -0.624390 0
M  V30 5 C 3.358836 -2.083699 -0.878963 0
M  V30 6 C 3.857565 -1.602819 -2.209875 0
M  V30 7 C 3.868181 -0.145996 -2.215409 0
M  V30 8 N 3.882673 1.019473 -2.239341 0
M  V30 9 C 1.531606 -0.519235 -0.011427 0
M  V30 10 N 2.465653 0.363786 0.546536 0
M  V30 11 C 0.141514 -0.465686 -0.021698 0
M  V30 12 C -0.732276 0.577742 0.590482 0
M  V30 13 O -1.493627 1.225476 -0.381096 0
M  V30 14 C 0.106380 1.529940 1.355794 0
M  V30 15 O 0.845218 2.395982 0.822961 0
M  V30 16 N -0.016219 1.361124 2.761372 0
M  V30 17 C -1.079078 0.412164 2.899525 0
M  V30 18 C -1.582679 0.039356 4.151253 0
M  V30 19 Cl -0.931204 0.557770 5.677317 0
M  V30 20 C -2.672486 -0.798478 4.186604 0
M  V30 21 C -3.226408 -1.237739 3.005555 0
M  V30 22 Cl -4.613819 -2.301292 3.072251 0
M  V30 23 C -2.667625 -0.823545 1.820898 0
M  V30 24 C -1.581896 0.006514 1.663423 0
M  V30 25 H -1.875229 -2.874614 -0.337297 0
M  V30 26 H -2.222515 -1.304913 -1.240539 0
M  V30 27 H -1.447641 -2.669418 -2.031827 0
M  V30 28 H 3.379573 -3.208689 -0.902982 0
M  V30 29 H 4.017151 -1.753359 -0.046711 0
M  V30 30 H 4.915608 -1.944192 -2.398830 0
M  V30 31 H 3.249139 -2.017270 -3.047813 0
M  V30 32 H 3.204976 1.084756 0.452838 0
M  V30 33 H 2.458915 0.313005 1.605765 0
M  V30 34 H -1.182812 1.036304 -1.314275 0
M  V30 35 H 0.569319 1.850304 3.469751 0
M  V30 36 H -3.097104 -1.114577 5.126460 0
M  V30 37 H -3.178453 -1.206027 0.953469 0
M  V30 END ATOM
M  V30 BEGIN BOND
M  V30 1 1 1 2
M  V30 2 2 2 3
M  V30 3 1 3 4
M  V30 4 1 4 5
M  V30 5 1 5 6
M  V30 6 1 6 7
M  V30 7 3 7 8
M  V30 8 1 4 9
M  V30 9 1 9 10
M  V30 10 2 9 11
M  V30 11 1 11 12
M  V30 12 1 12 13
M  V30 13 1 12 14
M  V30 14 2 14 15
M  V30 15 1 14 16
M  V30 16 1 16 17
M  V30 17 2 17 18
M  V30 18 1 18 19
M  V30 19 1 18 20
M  V30 20 2 20 21
M  V30 21 1 21 22
M  V30 22 1 21 23
M  V30 23 2 23 24
M  V30 24 1 11 2
M  V30 25 1 24 12
M  V30 26 1 24 17
M  V30 27 1 1 25
M  V30 28 1 1 26
M  V30 29 1 1 27
M  V30 30 1 5 28
M  V30 31 1 5 29
M  V30 32 1 6 30
M  V30 33 1 6 31
M  V30 34 1 10 32
M  V30 35 1 10 33
M  V30 36 1 13 34
M  V30 37 1 16 35
M  V30 38 1 20 36
M  V30 39 1 23 37
M  V30 END BOND
M  V30 END CTAB
M  END
>  <Dataset>  (485) 
ChEMBL_Kinases

>  <Ligand_Instance>  (485) 
nan

>  <PDB_ID>  (485) 
nan

>  <Standardized_SMILES>  (485) 
Cc1nn(CCC#N)c(N)c1C1(O)C(=O)Nc2c(Cl)cc(Cl)cc21

>  <Name>  (485) 
nan

>  <Pocket>  (485) 
nan

>  <ATP_Site>  (485) 
nan

>  <Peripheral>  (485) 
nan

>  <Num_H_Atoms_ProtBoundConf>  (485) 
nan

>  <Num_Resolved_Atoms>  (485) 
nan

>  <Num_Not_Resolved_Atoms>  (485) 
nan

$$$$
CHEMBL1457118
     RDKit          3D

  0  0  0  0  0  0  0  0  0  0999 V3000
M  V30 BEGIN CTAB
M  V30 COUNTS 44 48 0 0 0
M  V30 BEGIN ATOM
M  V30 1 C 2.580314 -5.022621 3.681544 0
M  V30 2 C 1.798417 -4.994988 2.566630 0
M  V30 3 C 2.218846 -4.443271 1.374836 0
M  V30 4 C 3.481299 -3.892081 1.291309 0
M  V30 5 C 4.140092 -3.248936 0.133835 0
M  V30 6 S 3.882156 -1.475140 0.032162 0
M  V30 7 C 2.185396 -1.042107 -0.289010 0
M  V30 8 N 1.095754 -1.811129 -0.463492 0
M  V30 9 N -0.100277 -1.298910 -0.696440 0
M  V30 10 C -0.325542 0.025997 -0.777867 0
M  V30 11 C 0.769902 0.826544 -0.603289 0
M  V30 12 N 1.980577 0.287010 -0.366840 0
M  V30 13 O 0.765169 2.220435 -0.646638 0
M  V30 14 C -0.197343 3.162367 -0.215104 0
M  V30 15 C -0.279928 3.222450 1.283917 0
M  V30 16 C -0.342952 4.201862 2.267411 0
M  V30 17 C -0.401862 3.519600 3.460136 0
M  V30 18 C -0.373940 2.168076 3.181887 0
M  V30 19 O -0.301183 2.042074 1.874778 0
M  V30 20 N -1.514265 2.915729 -0.793984 0
M  V30 21 C -2.214628 1.694102 -1.043114 0
M  V30 22 C -3.537009 1.872208 -1.309913 0
M  V30 23 C -4.337672 0.771944 -1.570492 0
M  V30 24 C -3.809256 -0.512487 -1.563306 0
M  V30 25 C -2.466902 -0.720818 -1.294730 0
M  V30 26 C -1.712989 0.410577 -1.041564 0
M  V30 27 C 4.262769 -3.930417 2.439488 0
M  V30 28 C 3.854695 -4.484943 3.656289 0
M  V30 29 H 2.180817 -5.472643 4.579432 0
M  V30 30 H 0.805898 -5.410281 2.575187 0
M  V30 31 H 1.657124 -4.386906 0.453341 0
M  V30 32 H 3.715797 -3.675943 -0.822437 0
M  V30 33 H 5.199114 -3.513225 0.108375 0
M  V30 34 H 0.115837 4.159734 -0.587220 0
M  V30 35 H -0.333662 5.207748 1.927890 0
M  V30 36 H -0.457970 4.076093 4.386286 0
M  V30 37 H -0.408553 1.404720 3.945387 0
M  V30 38 H -2.106125 3.732275 -1.104289 0
M  V30 39 H -3.965789 2.870889 -1.319435 0
M  V30 40 H -5.384725 0.967768 -1.777096 0
M  V30 41 H -4.449950 -1.359909 -1.769197 0
M  V30 42 H -2.029684 -1.717146 -1.283494 0
M  V30 43 H 5.280527 -3.519409 2.478520 0
M  V30 44 H 4.479595 -4.497711 4.517898 0
M  V30 END ATOM
M  V30 BEGIN BOND
M  V30 1 2 1 2
M  V30 2 1 2 3
M  V30 3 2 3 4
M  V30 4 1 4 5
M  V30 5 1 5 6
M  V30 6 1 6 7
M  V30 7 2 7 8
M  V30 8 1 8 9
M  V30 9 2 9 10
M  V30 10 1 10 11
M  V30 11 2 11 12
M  V30 12 1 11 13
M  V30 13 1 13 14
M  V30 14 1 14 15
M  V30 15 2 15 16
M  V30 16 1 16 17
M  V30 17 2 17 18
M  V30 18 1 18 19
M  V30 19 1 14 20
M  V30 20 1 20 21
M  V30 21 2 21 22
M  V30 22 1 22 23
M  V30 23 2 23 24
M  V30 24 1 24 25
M  V30 25 2 25 26
M  V30 26 1 4 27
M  V30 27 2 27 28
M  V30 28 1 28 1
M  V30 29 1 12 7
M  V30 30 1 19 15
M  V30 31 1 26 21
M  V30 32 1 26 10
M  V30 33 1 1 29
M  V30 34 1 2 30
M  V30 35 1 3 31
M  V30 36 1 5 32
M  V30 37 1 5 33
M  V30 38 1 14 34
M  V30 39 1 16 35
M  V30 40 1 17 36
M  V30 41 1 18 37
M  V30 42 1 20 38
M  V30 43 1 22 39
M  V30 44 1 23 40
M  V30 45 1 24 41
M  V30 46 1 25 42
M  V30 47 1 27 43
M  V30 48 1 28 44
M  V30 END BOND
M  V30 END CTAB
M  END
>  <Dataset>  (486) 
ChEMBL_Kinases

>  <Ligand_Instance>  (486) 
nan

>  <PDB_ID>  (486) 
nan

>  <Standardized_SMILES>  (486) 
c1ccc(CSc2nnc3c(n2)OC(c2ccco2)Nc2ccccc2-3)cc1

>  <Name>  (486) 
nan

>  <Pocket>  (486) 
nan

>  <ATP_Site>  (486) 
nan

>  <Peripheral>  (486) 
nan

>  <Num_H_Atoms_ProtBoundConf>  (486) 
nan

>  <Num_Resolved_Atoms>  (486) 
nan

>  <Num_Not_Resolved_Atoms>  (486) 
nan

$$$$
CHEMBL1457088
     RDKit          3D

  0  0  0  0  0  0  0  0  0  0999 V3000
M  V30 BEGIN CTAB
M  V30 COUNTS 38 40 0 0 0
M  V30 BEGIN ATOM
M  V30 1 C -0.388460 -4.151244 3.606626 0
M  V30 2 C 0.035777 -2.966519 2.843417 0
M  V30 3 C 1.158020 -2.645262 2.086213 0
M  V30 4 C 1.119656 -1.342166 1.535739 0
M  V30 5 C 2.351293 -1.123469 0.765724 0
M  V30 6 C 3.457409 -1.893813 0.495584 0
M  V30 7 C 4.459357 -1.381771 -0.275152 0
M  V30 8 C 4.428784 -0.114342 -0.808805 0
M  V30 9 C 3.348401 0.708834 -0.574640 0
M  V30 10 C 2.329805 0.171762 0.215471 0
M  V30 11 C 1.224538 1.143699 0.385475 0
M  V30 12 O 0.990361 1.688040 1.492251 0
M  V30 13 N 0.473349 1.392905 -0.792535 0
M  V30 14 C -0.676694 2.307472 -0.870732 0
M  V30 15 C -1.797526 1.527934 -0.235227 0
M  V30 16 C -2.187515 1.577296 1.081471 0
M  V30 17 C -3.218226 0.795484 1.562775 0
M  V30 18 C -3.878680 -0.060322 0.707672 0
M  V30 19 C -3.542900 -0.164197 -0.627369 0
M  V30 20 C -2.506107 0.645554 -1.037307 0
M  V30 21 O 0.007098 -0.976316 1.985879 0
M  V30 22 N -0.657979 -1.795206 2.709845 0
M  V30 23 H 0.030387 -5.053114 3.111993 0
M  V30 24 H 0.099196 -4.133887 4.623981 0
M  V30 25 H -1.474124 -4.192069 3.701799 0
M  V30 26 H 1.859085 -3.511791 2.082068 0
M  V30 27 H 3.388679 -2.858438 0.948167 0
M  V30 28 H 5.260989 -2.104004 -0.401396 0
M  V30 29 H 5.295964 0.168272 -1.405890 0
M  V30 30 H 3.339034 1.700437 -0.998625 0
M  V30 31 H 0.727415 0.900124 -1.700393 0
M  V30 32 H -0.952451 2.471104 -1.907011 0
M  V30 33 H -0.539967 3.222004 -0.280457 0
M  V30 34 H -1.659469 2.255688 1.718663 0
M  V30 35 H -3.468270 0.894457 2.627676 0
M  V30 36 H -4.692752 -0.673104 1.114193 0
M  V30 37 H -4.043639 -0.829152 -1.317319 0
M  V30 38 H -2.225119 0.577986 -2.087645 0
M  V30 END ATOM
M  V30 BEGIN BOND
M  V30 1 1 1 2
M  V30 2 1 2 3
M  V30 3 2 3 4
M  V30 4 1 4 5
M  V30 5 2 5 6
M  V30 6 1 6 7
M  V30 7 2 7 8
M  V30 8 1 8 9
M  V30 9 2 9 10
M  V30 10 1 10 11
M  V30 11 2 11 12
M  V30 12 1 11 13
M  V30 13 1 13 14
M  V30 14 1 14 15
M  V30 15 2 15 16
M  V30 16 1 16 17
M  V30 17 2 17 18
M  V30 18 1 18 19
M  V30 19 2 19 20
M  V30 20 1 4 21
M  V30 21 1 21 22
M  V30 22 2 22 2
M  V30 23 1 10 5
M  V30 24 1 20 15
M  V30 25 1 1 23
M  V30 26 1 1 24
M  V30 27 1 1 25
M  V30 28 1 3 26
M  V30 29 1 6 27
M  V30 30 1 7 28
M  V30 31 1 8 29
M  V30 32 1 9 30
M  V30 33 1 13 31
M  V30 34 1 14 32
M  V30 35 1 14 33
M  V30 36 1 16 34
M  V30 37 1 17 35
M  V30 38 1 18 36
M  V30 39 1 19 37
M  V30 40 1 20 38
M  V30 END BOND
M  V30 END CTAB
M  END
>  <Dataset>  (487) 
ChEMBL_Kinases

>  <Ligand_Instance>  (487) 
nan

>  <PDB_ID>  (487) 
nan

>  <Standardized_SMILES>  (487) 
Cc1cc(-c2ccccc2C(=O)NCc2ccccc2)on1

>  <Name>  (487) 
nan

>  <Pocket>  (487) 
nan

>  <ATP_Site>  (487) 
nan

>  <Peripheral>  (487) 
nan

>  <Num_H_Atoms_ProtBoundConf>  (487) 
nan

>  <Num_Resolved_Atoms>  (487) 
nan

>  <Num_Not_Resolved_Atoms>  (487) 
nan

$$$$
CHEMBL1456994
     RDKit          3D

  0  0  0  0  0  0  0  0  0  0999 V3000
M  V30 BEGIN CTAB
M  V30 COUNTS 61 63 0 0 0
M  V30 BEGIN ATOM
M  V30 1 C 1.642187 -1.384473 3.455037 0
M  V30 2 C 2.680561 -0.536880 4.099040 0
M  V30 3 C 2.371547 0.913332 4.214330 0
M  V30 4 N 2.139600 1.617094 2.991467 0
M  V30 5 C 3.298948 2.216453 2.314689 0
M  V30 6 C 3.958075 1.295450 1.343680 0
M  V30 7 C 3.087024 0.814785 0.231314 0
M  V30 8 C 0.909803 1.856709 2.269922 0
M  V30 9 O 0.739057 2.488475 1.194172 0
M  V30 10 C -0.407518 1.338998 2.761711 0
M  V30 11 S -1.046856 -0.012986 1.751745 0
M  V30 12 C -1.532976 0.566929 0.117123 0
M  V30 13 N -1.425070 1.857293 -0.238649 0
M  V30 14 C -1.778323 2.351657 -1.435448 0
M  V30 15 N -1.799099 3.530869 -2.076551 0
M  V30 16 N -2.286874 3.393391 -3.315917 0
M  V30 17 C -2.609256 2.096634 -3.535684 0
M  V30 18 C -3.182290 1.478705 -4.761831 0
M  V30 19 C -2.312606 1.393793 -2.391763 0
M  V30 20 C -2.386725 0.092867 -1.940891 0
M  V30 21 N -2.901392 -0.877931 -2.839756 0
M  V30 22 N -2.019806 -0.356649 -0.730867 0
M  V30 23 C -2.150518 -1.759372 -0.409134 0
M  V30 24 C -3.176152 -2.439651 0.204683 0
M  V30 25 C -3.060304 -3.799982 0.400253 0
M  V30 26 C -1.939551 -4.490275 -0.006005 0
M  V30 27 O -1.976380 -5.844562 0.261093 0
M  V30 28 C -0.933558 -6.742311 -0.065177 0
M  V30 29 C 0.321644 -6.350446 0.635509 0
M  V30 30 C -0.925315 -3.788257 -0.618354 0
M  V30 31 C -0.994082 -2.408378 -0.839858 0
M  V30 32 H 1.885668 -2.442127 3.711355 0
M  V30 33 H 1.594703 -1.318361 2.357850 0
M  V30 34 H 0.648510 -1.206816 3.932367 0
M  V30 35 H 3.669647 -0.777080 3.657793 0
M  V30 36 H 2.768996 -0.913824 5.164029 0
M  V30 37 H 1.555139 1.042815 4.957411 0
M  V30 38 H 3.261422 1.387230 4.713290 0
M  V30 39 H 4.072367 2.537086 3.055305 0
M  V30 40 H 3.026822 3.153538 1.780781 0
M  V30 41 H 4.509059 0.455301 1.796222 0
M  V30 42 H 4.764715 1.917909 0.849763 0
M  V30 43 H 2.232041 0.238197 0.646473 0
M  V30 44 H 2.766342 1.617195 -0.462858 0
M  V30 45 H 3.696621 0.081888 -0.374139 0
M  V30 46 H -0.348116 1.011049 3.813435 0
M  V30 47 H -1.170064 2.141972 2.738138 0
M  V30 48 H -2.876793 2.129012 -5.614386 0
M  V30 49 H -4.286060 1.374181 -4.688088 0
M  V30 50 H -2.743251 0.471349 -4.975168 0
M  V30 51 H -2.803197 -1.909494 -2.705077 0
M  V30 52 H -3.293210 -1.556097 -3.522112 0
M  V30 53 H -3.985944 -1.773952 0.467633 0
M  V30 54 H -3.925255 -4.255867 0.895621 0
M  V30 55 H -0.765109 -6.624125 -1.175045 0
M  V30 56 H -1.225909 -7.797331 0.108580 0
M  V30 57 H 0.138747 -5.412829 1.202097 0
M  V30 58 H 1.140579 -6.253834 -0.091512 0
M  V30 59 H 0.540114 -7.120821 1.415387 0
M  V30 60 H -0.058575 -4.366708 -0.929461 0
M  V30 61 H -0.121622 -2.001355 -1.330135 0
M  V30 END ATOM
M  V30 BEGIN BOND
M  V30 1 1 1 2
M  V30 2 1 2 3
M  V30 3 1 3 4
M  V30 4 1 4 5
M  V30 5 1 5 6
M  V30 6 1 6 7
M  V30 7 1 4 8
M  V30 8 2 8 9
M  V30 9 1 8 10
M  V30 10 1 10 11
M  V30 11 1 11 12
M  V30 12 2 12 13
M  V30 13 1 13 14
M  V30 14 2 14 15
M  V30 15 1 15 16
M  V30 16 2 16 17
M  V30 17 1 17 18
M  V30 18 1 17 19
M  V30 19 2 19 20
M  V30 20 1 20 21
M  V30 21 1 20 22
M  V30 22 1 22 23
M  V30 23 2 23 24
M  V30 24 1 24 25
M  V30 25 2 25 26
M  V30 26 1 26 27
M  V30 27 1 27 28
M  V30 28 1 28 29
M  V30 29 1 26 30
M  V30 30 2 30 31
M  V30 31 1 22 12
M  V30 32 1 31 23
M  V30 33 1 19 14
M  V30 34 1 1 32
M  V30 35 1 1 33
M  V30 36 1 1 34
M  V30 37 1 2 35
M  V30 38 1 2 36
M  V30 39 1 3 37
M  V30 40 1 3 38
M  V30 41 1 5 39
M  V30 42 1 5 40
M  V30 43 1 6 41
M  V30 44 1 6 42
M  V30 45 1 7 43
M  V30 46 1 7 44
M  V30 47 1 7 45
M  V30 48 1 10 46
M  V30 49 1 10 47
M  V30 50 1 18 48
M  V30 51 1 18 49
M  V30 52 1 18 50
M  V30 53 1 21 51
M  V30 54 1 21 52
M  V30 55 1 24 53
M  V30 56 1 25 54
M  V30 57 1 28 55
M  V30 58 1 28 56
M  V30 59 1 29 57
M  V30 60 1 29 58
M  V30 61 1 29 59
M  V30 62 1 30 60
M  V30 63 1 31 61
M  V30 END BOND
M  V30 END CTAB
M  END
>  <Dataset>  (488) 
ChEMBL_Kinases

>  <Ligand_Instance>  (488) 
nan

>  <PDB_ID>  (488) 
nan

>  <Standardized_SMILES>  (488) 
CCCN(CCC)C(=O)CSc1nc2nnc(C)c-2c(N)n1-c1ccc(OCC)cc1

>  <Name>  (488) 
nan

>  <Pocket>  (488) 
nan

>  <ATP_Site>  (488) 
nan

>  <Peripheral>  (488) 
nan

>  <Num_H_Atoms_ProtBoundConf>  (488) 
nan

>  <Num_Resolved_Atoms>  (488) 
nan

>  <Num_Not_Resolved_Atoms>  (488) 
nan

$$$$
CHEMBL1461878
     RDKit          3D

  0  0  0  0  0  0  0  0  0  0999 V3000
M  V30 BEGIN CTAB
M  V30 COUNTS 39 40 0 0 0
M  V30 BEGIN ATOM
M  V30 1 C -1.609616 -3.653165 3.841939 0
M  V30 2 C -2.498154 -2.902080 2.886089 0
M  V30 3 N -1.913580 -2.883335 1.573466 0
M  V30 4 C -1.878137 -4.134362 0.836394 0
M  V30 5 C -0.929651 -5.156788 1.355836 0
M  V30 6 C -1.365295 -1.691284 1.012467 0
M  V30 7 C -0.796953 -1.587819 -0.237963 0
M  V30 8 C -0.252086 -0.452257 -0.795942 0
M  V30 9 C -0.269298 0.703387 -0.040949 0
M  V30 10 N 0.289674 1.903454 -0.578068 0
M  V30 11 C 1.683403 1.924415 -0.205796 0
M  V30 12 O 1.958942 0.887829 0.465946 0
M  V30 13 C 2.569938 3.024697 -0.593872 0
M  V30 14 C 2.265353 4.149166 -1.331560 0
M  V30 15 N 3.237014 5.046540 -1.577332 0
M  V30 16 C 4.506477 4.865500 -1.114310 0
M  V30 17 C 4.851487 3.769118 -0.381666 0
M  V30 18 Br 6.639138 3.528584 0.261848 0
M  V30 19 C 3.867215 2.813812 -0.105820 0
M  V30 20 C -0.818357 0.695715 1.224182 0
M  V30 21 C -1.340948 -0.494433 1.696594 0
M  V30 22 H -1.770699 -4.724907 3.717082 0
M  V30 23 H -0.553789 -3.318739 3.832065 0
M  V30 24 H -2.003047 -3.405972 4.865513 0
M  V30 25 H -2.772044 -1.920946 3.273494 0
M  V30 26 H -3.441166 -3.516273 2.766607 0
M  V30 27 H -1.713878 -3.999269 -0.247437 0
M  V30 28 H -2.907261 -4.587031 0.934157 0
M  V30 29 H -0.146846 -4.689673 1.963545 0
M  V30 30 H -0.370612 -5.585408 0.472421 0
M  V30 31 H -1.415127 -6.046076 1.813265 0
M  V30 32 H -0.739230 -2.440633 -0.890798 0
M  V30 33 H 0.179690 -0.421537 -1.778718 0
M  V30 34 H -0.131263 2.674312 -1.138752 0
M  V30 35 H 1.240872 4.176820 -1.636356 0
M  V30 36 H 5.266708 5.595278 -1.322014 0
M  V30 37 H 4.205519 1.969575 0.479800 0
M  V30 38 H -0.801194 1.620558 1.758710 0
M  V30 39 H -1.736235 -0.377579 2.692047 0
M  V30 END ATOM
M  V30 BEGIN BOND
M  V30 1 1 1 2
M  V30 2 1 2 3
M  V30 3 1 3 4
M  V30 4 1 4 5
M  V30 5 1 3 6
M  V30 6 2 6 7
M  V30 7 1 7 8
M  V30 8 2 8 9
M  V30 9 1 9 10
M  V30 10 1 10 11
M  V30 11 2 11 12
M  V30 12 1 11 13
M  V30 13 2 13 14
M  V30 14 1 14 15
M  V30 15 2 15 16
M  V30 16 1 16 17
M  V30 17 1 17 18
M  V30 18 2 17 19
M  V30 19 1 9 20
M  V30 20 2 20 21
M  V30 21 1 21 6
M  V30 22 1 19 13
M  V30 23 1 1 22
M  V30 24 1 1 23
M  V30 25 1 1 24
M  V30 26 1 2 25
M  V30 27 1 2 26
M  V30 28 1 4 27
M  V30 29 1 4 28
M  V30 30 1 5 29
M  V30 31 1 5 30
M  V30 32 1 5 31
M  V30 33 1 7 32
M  V30 34 1 8 33
M  V30 35 1 10 34
M  V30 36 1 14 35
M  V30 37 1 16 36
M  V30 38 1 19 37
M  V30 39 1 20 38
M  V30 40 1 21 39
M  V30 END BOND
M  V30 END CTAB
M  END
>  <Dataset>  (489) 
ChEMBL_Kinases

>  <Ligand_Instance>  (489) 
nan

>  <PDB_ID>  (489) 
nan

>  <Standardized_SMILES>  (489) 
CCN(CC)c1ccc(NC(=O)c2cncc(Br)c2)cc1

>  <Name>  (489) 
nan

>  <Pocket>  (489) 
nan

>  <ATP_Site>  (489) 
nan

>  <Peripheral>  (489) 
nan

>  <Num_H_Atoms_ProtBoundConf>  (489) 
nan

>  <Num_Resolved_Atoms>  (489) 
nan

>  <Num_Not_Resolved_Atoms>  (489) 
nan

$$$$
CHEMBL1455570
     RDKit          3D

  0  0  0  0  0  0  0  0  0  0999 V3000
M  V30 BEGIN CTAB
M  V30 COUNTS 40 42 0 0 0
M  V30 BEGIN ATOM
M  V30 1 C -1.320814 -4.322402 0.690642 0
M  V30 2 C 0.017860 -4.569512 1.396590 0
M  V30 3 N 0.849477 -3.393737 1.251141 0
M  V30 4 C 1.271297 -2.657505 0.115983 0
M  V30 5 N 2.256407 -3.125309 -0.711802 0
M  V30 6 C 2.633702 -2.336550 -1.767940 0
M  V30 7 C 2.022261 -1.114986 -1.965881 0
M  V30 8 N 2.415075 -0.341121 -3.004448 0
M  V30 9 C 1.798079 0.842275 -3.143110 0
M  V30 10 C 0.809015 1.251166 -2.265238 0
M  V30 11 O 0.313086 2.386333 -2.506714 0
M  V30 12 N 0.384574 0.489025 -1.201979 0
M  V30 13 C -0.636233 1.037597 -0.378229 0
M  V30 14 C -0.190319 1.775404 0.825930 0
M  V30 15 C 0.445741 2.970881 0.915904 0
M  V30 16 C 0.780875 3.595937 2.119118 0
M  V30 17 C 0.436833 2.943147 3.309706 0
M  V30 18 C -0.210656 1.726911 3.324661 0
M  V30 19 O -0.567489 1.054382 4.481266 0
M  V30 20 C -1.244917 -0.202685 4.344520 0
M  V30 21 C -0.487403 1.211702 2.075882 0
M  V30 22 C 1.033971 -0.702178 -1.096458 0
M  V30 23 N 0.637269 -1.462263 -0.037028 0
M  V30 24 H -1.903951 -5.265908 0.593850 0
M  V30 25 H -1.886669 -3.588215 1.257456 0
M  V30 26 H -1.071831 -3.918072 -0.325481 0
M  V30 27 H 0.487556 -5.508050 1.068425 0
M  V30 28 H -0.271760 -4.715057 2.467379 0
M  V30 29 H 1.230551 -2.968666 2.146001 0
M  V30 30 H 3.424094 -2.681005 -2.455044 0
M  V30 31 H 2.082209 1.495343 -3.966273 0
M  V30 32 H -1.417313 0.301129 -0.077924 0
M  V30 33 H -1.196995 1.802515 -0.995810 0
M  V30 34 H 0.700775 3.440097 -0.031413 0
M  V30 35 H 1.286112 4.544043 2.119031 0
M  V30 36 H 0.693686 3.424906 4.261048 0
M  V30 37 H -2.185141 0.021856 3.758852 0
M  V30 38 H -1.551276 -0.625997 5.307092 0
M  V30 39 H -0.667271 -0.917438 3.726779 0
M  V30 40 H -0.996988 0.253564 2.079344 0
M  V30 END ATOM
M  V30 BEGIN BOND
M  V30 1 1 1 2
M  V30 2 1 2 3
M  V30 3 1 3 4
M  V30 4 2 4 5
M  V30 5 1 5 6
M  V30 6 2 6 7
M  V30 7 1 7 8
M  V30 8 2 8 9
M  V30 9 1 9 10
M  V30 10 2 10 11
M  V30 11 1 10 12
M  V30 12 1 12 13
M  V30 13 1 13 14
M  V30 14 2 14 15
M  V30 15 1 15 16
M  V30 16 2 16 17
M  V30 17 1 17 18
M  V30 18 1 18 19
M  V30 19 1 19 20
M  V30 20 2 18 21
M  V30 21 1 12 22
M  V30 22 2 22 23
M  V30 23 1 23 4
M  V30 24 1 22 7
M  V30 25 1 21 14
M  V30 26 1 1 24
M  V30 27 1 1 25
M  V30 28 1 1 26
M  V30 29 1 2 27
M  V30 30 1 2 28
M  V30 31 1 3 29
M  V30 32 1 6 30
M  V30 33 1 9 31
M  V30 34 1 13 32
M  V30 35 1 13 33
M  V30 36 1 15 34
M  V30 37 1 16 35
M  V30 38 1 17 36
M  V30 39 1 20 37
M  V30 40 1 20 38
M  V30 41 1 20 39
M  V30 42 1 21 40
M  V30 END BOND
M  V30 END CTAB
M  END
>  <Dataset>  (490) 
ChEMBL_Kinases

>  <Ligand_Instance>  (490) 
nan

>  <PDB_ID>  (490) 
nan

>  <Standardized_SMILES>  (490) 
CCNc1ncc2ncc(=O)n(Cc3cccc(OC)c3)c2n1

>  <Name>  (490) 
nan

>  <Pocket>  (490) 
nan

>  <ATP_Site>  (490) 
nan

>  <Peripheral>  (490) 
nan

>  <Num_H_Atoms_ProtBoundConf>  (490) 
nan

>  <Num_Resolved_Atoms>  (490) 
nan

>  <Num_Not_Resolved_Atoms>  (490) 
nan

$$$$
CHEMBL1455600
     RDKit          3D

  0  0  0  0  0  0  0  0  0  0999 V3000
M  V30 BEGIN CTAB
M  V30 COUNTS 41 45 0 0 0
M  V30 BEGIN ATOM
M  V30 1 C 0.634528 -5.766937 2.407415 0
M  V30 2 C -0.365761 -5.459306 1.292464 0
M  V30 3 C -0.401717 -3.974993 1.175392 0
M  V30 4 N 0.447034 -3.364026 0.337647 0
M  V30 5 C 0.481187 -2.033197 0.172460 0
M  V30 6 N 1.397348 -1.480156 -0.750979 0
M  V30 7 C 1.848456 -0.213774 -1.121659 0
M  V30 8 C 2.122300 0.208324 -2.423537 0
M  V30 9 C 2.589734 1.479062 -2.662504 0
M  V30 10 C 2.806558 2.377941 -1.654754 0
M  V30 11 N 3.265996 3.604306 -1.962065 0
M  V30 12 C 3.495411 4.521406 -1.012811 0
M  V30 13 C 3.234713 4.143313 0.310734 0
M  V30 14 N 2.777851 2.917437 0.591115 0
M  V30 15 C 2.552771 2.014299 -0.349837 0
M  V30 16 C 2.076592 0.721249 -0.101223 0
M  V30 17 C -0.423688 -1.321244 0.928539 0
M  V30 18 O -0.663131 -0.060133 1.018369 0
M  V30 19 C -1.607354 0.254240 1.849462 0
M  V30 20 C -2.122138 1.487412 2.193810 0
M  V30 21 C -3.153947 1.483856 3.137099 0
M  V30 22 C -3.638151 0.304679 3.700832 0
M  V30 23 C -3.099752 -0.927911 3.334900 0
M  V30 24 C -2.083112 -0.913651 2.403913 0
M  V30 25 C -1.324190 -1.898730 1.810656 0
M  V30 26 N -1.288344 -3.245511 1.912907 0
M  V30 27 H 1.085533 -6.752532 2.296451 0
M  V30 28 H 1.450079 -4.999931 2.369038 0
M  V30 29 H 0.156869 -5.645895 3.409610 0
M  V30 30 H -1.351693 -5.905595 1.514993 0
M  V30 31 H 0.035118 -5.862487 0.349613 0
M  V30 32 H 1.927990 -2.167982 -1.366669 0
M  V30 33 H 1.949227 -0.516160 -3.222600 0
M  V30 34 H 2.771378 1.707522 -3.711604 0
M  V30 35 H 3.853362 5.521277 -1.099652 0
M  V30 36 H 3.376399 4.789188 1.179129 0
M  V30 37 H 1.932437 0.564774 0.957862 0
M  V30 38 H -1.759375 2.400125 1.766187 0
M  V30 39 H -3.557801 2.443772 3.407129 0
M  V30 40 H -4.443264 0.334897 4.433493 0
M  V30 41 H -3.432622 -1.864977 3.733759 0
M  V30 END ATOM
M  V30 BEGIN BOND
M  V30 1 1 1 2
M  V30 2 1 2 3
M  V30 3 2 3 4
M  V30 4 1 4 5
M  V30 5 1 5 6
M  V30 6 1 6 7
M  V30 7 2 7 8
M  V30 8 1 8 9
M  V30 9 2 9 10
M  V30 10 1 10 11
M  V30 11 2 11 12
M  V30 12 1 12 13
M  V30 13 2 13 14
M  V30 14 1 14 15
M  V30 15 2 15 16
M  V30 16 2 5 17
M  V30 17 1 17 18
M  V30 18 1 18 19
M  V30 19 2 19 20
M  V30 20 1 20 21
M  V30 21 2 21 22
M  V30 22 1 22 23
M  V30 23 2 23 24
M  V30 24 1 24 25
M  V30 25 2 25 26
M  V30 26 1 26 3
M  V30 27 1 16 7
M  V30 28 1 25 17
M  V30 29 1 15 10
M  V30 30 1 24 19
M  V30 31 1 1 27
M  V30 32 1 1 28
M  V30 33 1 1 29
M  V30 34 1 2 30
M  V30 35 1 2 31
M  V30 36 1 6 32
M  V30 37 1 8 33
M  V30 38 1 9 34
M  V30 39 1 12 35
M  V30 40 1 13 36
M  V30 41 1 16 37
M  V30 42 1 20 38
M  V30 43 1 21 39
M  V30 44 1 22 40
M  V30 45 1 23 41
M  V30 END BOND
M  V30 END CTAB
M  END
>  <Dataset>  (491) 
ChEMBL_Kinases

>  <Ligand_Instance>  (491) 
nan

>  <PDB_ID>  (491) 
nan

>  <Standardized_SMILES>  (491) 
CCc1nc(Nc2ccc3nccnc3c2)c2oc3ccccc3c2n1

>  <Name>  (491) 
nan

>  <Pocket>  (491) 
nan

>  <ATP_Site>  (491) 
nan

>  <Peripheral>  (491) 
nan

>  <Num_H_Atoms_ProtBoundConf>  (491) 
nan

>  <Num_Resolved_Atoms>  (491) 
nan

>  <Num_Not_Resolved_Atoms>  (491) 
nan

$$$$
CHEMBL1455689
     RDKit          3D

  0  0  0  0  0  0  0  0  0  0999 V3000
M  V30 BEGIN CTAB
M  V30 COUNTS 43 46 0 0 0
M  V30 BEGIN ATOM
M  V30 1 C -1.125933 -3.042502 -0.426350 0
M  V30 2 N 0.206997 -3.319555 0.018619 0
M  V30 3 C 1.243431 -2.476030 -0.106483 0
M  V30 4 N 1.323142 -1.171059 -0.667792 0
M  V30 5 C 1.126717 0.059456 0.007780 0
M  V30 6 O 0.848208 0.126231 1.232674 0
M  V30 7 C 1.237070 1.338127 -0.685230 0
M  V30 8 C 1.533178 1.493195 -2.023648 0
M  V30 9 C 1.624314 2.731497 -2.624890 0
M  V30 10 C 1.419503 3.886290 -1.899807 0
M  V30 11 C 1.120717 3.778292 -0.556991 0
M  V30 12 C 1.037824 2.506910 0.012940 0
M  V30 13 N 0.719579 2.535639 1.420347 0
M  V30 14 C -0.706612 2.497516 1.574847 0
M  V30 15 O -1.257819 2.450020 0.427363 0
M  V30 16 C -1.302095 2.516526 2.926217 0
M  V30 17 C -0.833152 2.565877 4.232473 0
M  V30 18 C -1.967174 2.553624 5.020151 0
M  V30 19 C -3.055483 2.498423 4.175139 0
M  V30 20 O -2.614851 2.478156 2.946697 0
M  V30 21 N 2.353300 -3.041986 0.413140 0
M  V30 22 C 2.021151 -4.279580 0.883516 0
M  V30 23 C 2.766491 -5.265442 1.501948 0
M  V30 24 C 2.099795 -6.420230 1.854743 0
M  V30 25 C 0.756396 -6.636181 1.626588 0
M  V30 26 C 0.040435 -5.611049 0.997777 0
M  V30 27 C 0.659668 -4.434268 0.623744 0
M  V30 28 H -1.916063 -3.409274 0.272810 0
M  V30 29 H -1.295582 -1.977975 -0.605143 0
M  V30 30 H -1.282697 -3.619245 -1.381163 0
M  V30 31 H 1.553948 -1.213381 -1.684983 0
M  V30 32 H 1.696938 0.598339 -2.607937 0
M  V30 33 H 1.862633 2.797699 -3.692771 0
M  V30 34 H 1.504900 4.826129 -2.428133 0
M  V30 35 H 0.962066 4.686461 0.002493 0
M  V30 36 H 1.365592 2.577396 2.253198 0
M  V30 37 H 0.246732 2.600684 4.335419 0
M  V30 38 H -1.799513 2.588016 6.104267 0
M  V30 39 H -4.041600 2.481640 4.634196 0
M  V30 40 H 3.817226 -5.105341 1.684310 0
M  V30 41 H 2.708450 -7.181278 2.340180 0
M  V30 42 H 0.324397 -7.580881 1.942567 0
M  V30 43 H -1.007257 -5.766265 0.813973 0
M  V30 END ATOM
M  V30 BEGIN BOND
M  V30 1 1 1 2
M  V30 2 1 2 3
M  V30 3 1 3 4
M  V30 4 1 4 5
M  V30 5 2 5 6
M  V30 6 1 5 7
M  V30 7 2 7 8
M  V30 8 1 8 9
M  V30 9 2 9 10
M  V30 10 1 10 11
M  V30 11 2 11 12
M  V30 12 1 12 13
M  V30 13 1 13 14
M  V30 14 2 14 15
M  V30 15 1 14 16
M  V30 16 2 16 17
M  V30 17 1 17 18
M  V30 18 2 18 19
M  V30 19 1 19 20
M  V30 20 2 3 21
M  V30 21 1 21 22
M  V30 22 2 22 23
M  V30 23 1 23 24
M  V30 24 2 24 25
M  V30 25 1 25 26
M  V30 26 2 26 27
M  V30 27 1 27 2
M  V30 28 1 12 7
M  V30 29 1 20 16
M  V30 30 1 27 22
M  V30 31 1 1 28
M  V30 32 1 1 29
M  V30 33 1 1 30
M  V30 34 1 4 31
M  V30 35 1 8 32
M  V30 36 1 9 33
M  V30 37 1 10 34
M  V30 38 1 11 35
M  V30 39 1 13 36
M  V30 40 1 17 37
M  V30 41 1 18 38
M  V30 42 1 19 39
M  V30 43 1 23 40
M  V30 44 1 24 41
M  V30 45 1 25 42
M  V30 46 1 26 43
M  V30 END BOND
M  V30 END CTAB
M  END
>  <Dataset>  (492) 
ChEMBL_Kinases

>  <Ligand_Instance>  (492) 
nan

>  <PDB_ID>  (492) 
nan

>  <Standardized_SMILES>  (492) 
Cn1c(NC(=O)c2ccccc2NC(=O)c2ccco2)nc2ccccc21

>  <Name>  (492) 
nan

>  <Pocket>  (492) 
nan

>  <ATP_Site>  (492) 
nan

>  <Peripheral>  (492) 
nan

>  <Num_H_Atoms_ProtBoundConf>  (492) 
nan

>  <Num_Resolved_Atoms>  (492) 
nan

>  <Num_Not_Resolved_Atoms>  (492) 
nan

$$$$
CHEMBL1455767
     RDKit          3D

  0  0  0  0  0  0  0  0  0  0999 V3000
M  V30 BEGIN CTAB
M  V30 COUNTS 49 53 0 0 0
M  V30 BEGIN ATOM
M  V30 1 C -0.799492 -2.716088 4.592619 0
M  V30 2 N -0.071006 -3.932735 4.824599 0
M  V30 3 C 1.323439 -3.636656 4.974776 0
M  V30 4 C 2.040471 -3.660818 3.656802 0
M  V30 5 N 1.068902 -3.294005 2.641414 0
M  V30 6 C 1.129406 -2.068097 1.920153 0
M  V30 7 N 2.124745 -1.199568 2.178179 0
M  V30 8 C 2.217543 -0.010609 1.506540 0
M  V30 9 C 1.224105 0.222201 0.558522 0
M  V30 10 N 1.290736 1.395700 -0.124385 0
M  V30 11 C 0.351951 1.683601 -1.062771 0
M  V30 12 C 0.483523 2.964196 -1.760531 0
M  V30 13 C -0.675999 3.729966 -1.920009 0
M  V30 14 C -0.632088 4.953538 -2.569663 0
M  V30 15 F -1.705332 5.752471 -2.764496 0
M  V30 16 C 0.589654 5.406776 -3.061255 0
M  V30 17 C 1.760060 4.661743 -2.914914 0
M  V30 18 F 2.935084 5.133268 -3.406359 0
M  V30 19 C 1.673906 3.450046 -2.262672 0
M  V30 20 C -0.668675 0.771446 -1.313843 0
M  V30 21 O -1.480299 1.116427 -2.185520 0
M  V30 22 N -0.744034 -0.394023 -0.642985 0
M  V30 23 C -1.807416 -1.319931 -0.919794 0
M  V30 24 C -3.186830 -0.864233 -1.232806 0
M  V30 25 C -2.298973 -1.555962 -2.296092 0
M  V30 26 C 0.195901 -0.661569 0.283523 0
M  V30 27 N 0.175204 -1.827306 0.998772 0
M  V30 28 C 0.018488 -4.267333 2.404382 0
M  V30 29 C -0.349177 -4.864805 3.751209 0
M  V30 30 H -1.497265 -2.499379 5.430615 0
M  V30 31 H -0.144399 -1.816645 4.520179 0
M  V30 32 H -1.405290 -2.733818 3.645160 0
M  V30 33 H 1.384604 -2.601180 5.388044 0
M  V30 34 H 1.758560 -4.336137 5.716121 0
M  V30 35 H 2.803244 -2.846960 3.661007 0
M  V30 36 H 2.502547 -4.644938 3.440493 0
M  V30 37 H 2.998859 0.714232 1.682026 0
M  V30 38 H -1.644833 3.416470 -1.554193 0
M  V30 39 H 0.638889 6.352760 -3.566698 0
M  V30 40 H 2.544867 2.830073 -2.119383 0
M  V30 41 H -1.781597 -2.265985 -0.302618 0
M  V30 42 H -3.469080 0.179281 -1.393482 0
M  V30 43 H -4.066043 -1.467705 -0.875323 0
M  V30 44 H -1.962796 -0.955388 -3.152792 0
M  V30 45 H -2.623909 -2.571630 -2.621244 0
M  V30 46 H -0.884684 -3.819487 1.961941 0
M  V30 47 H 0.445327 -5.087663 1.797703 0
M  V30 48 H 0.231824 -5.785411 3.930844 0
M  V30 49 H -1.419721 -5.135582 3.803808 0
M  V30 END ATOM
M  V30 BEGIN BOND
M  V30 1 1 1 2
M  V30 2 1 2 3
M  V30 3 1 3 4
M  V30 4 1 4 5
M  V30 5 1 5 6
M  V30 6 2 6 7
M  V30 7 1 7 8
M  V30 8 2 8 9
M  V30 9 1 9 10
M  V30 10 2 10 11
M  V30 11 1 11 12
M  V30 12 2 12 13
M  V30 13 1 13 14
M  V30 14 1 14 15
M  V30 15 2 14 16
M  V30 16 1 16 17
M  V30 17 1 17 18
M  V30 18 2 17 19
M  V30 19 1 11 20
M  V30 20 2 20 21
M  V30 21 1 20 22
M  V30 22 1 22 23
M  V30 23 1 23 24
M  V30 24 1 24 25
M  V30 25 1 22 26
M  V30 26 2 26 27
M  V30 27 1 5 28
M  V30 28 1 28 29
M  V30 29 1 29 2
M  V30 30 1 27 6
M  V30 31 1 26 9
M  V30 32 1 19 12
M  V30 33 1 25 23
M  V30 34 1 1 30
M  V30 35 1 1 31
M  V30 36 1 1 32
M  V30 37 1 3 33
M  V30 38 1 3 34
M  V30 39 1 4 35
M  V30 40 1 4 36
M  V30 41 1 8 37
M  V30 42 1 13 38
M  V30 43 1 16 39
M  V30 44 1 19 40
M  V30 45 1 23 41
M  V30 46 1 24 42
M  V30 47 1 24 43
M  V30 48 1 25 44
M  V30 49 1 25 45
M  V30 50 1 28 46
M  V30 51 1 28 47
M  V30 52 1 29 48
M  V30 53 1 29 49
M  V30 END BOND
M  V30 END CTAB
M  END
>  <Dataset>  (493) 
ChEMBL_Kinases

>  <Ligand_Instance>  (493) 
nan

>  <PDB_ID>  (493) 
nan

>  <Standardized_SMILES>  (493) 
CN1CCN(c2ncc3nc(-c4cc(F)cc(F)c4)c(=O)n(C4CC4)c3n2)CC1

>  <Name>  (493) 
nan

>  <Pocket>  (493) 
nan

>  <ATP_Site>  (493) 
nan

>  <Peripheral>  (493) 
nan

>  <Num_H_Atoms_ProtBoundConf>  (493) 
nan

>  <Num_Resolved_Atoms>  (493) 
nan

>  <Num_Not_Resolved_Atoms>  (493) 
nan

$$$$
CHEMBL1455836
     RDKit          3D

  0  0  0  0  0  0  0  0  0  0999 V3000
M  V30 BEGIN CTAB
M  V30 COUNTS 40 41 0 0 0
M  V30 BEGIN ATOM
M  V30 1 O 0.737661 -0.236777 1.798234 0
M  V30 2 C -0.119884 -0.627719 2.672121 0
M  V30 3 C 0.569101 -1.953272 2.908731 0
M  V30 4 C 1.728666 -1.984040 1.931301 0
M  V30 5 N 1.284370 -1.957483 0.568266 0
M  V30 6 C 0.665209 -3.186560 0.141844 0
M  V30 7 C -0.175044 -2.928677 -1.058491 0
M  V30 8 C -0.662480 -1.510765 -1.109226 0
M  V30 9 C 0.309324 -0.548412 -1.665975 0
M  V30 10 C 1.747241 -0.860303 -1.582661 0
M  V30 11 C 2.252415 -1.536617 -0.355412 0
M  V30 12 N -1.237244 0.107417 3.103838 0
M  V30 13 C -1.124214 1.313449 2.354596 0
M  V30 14 C -0.375805 2.258419 3.058143 0
M  V30 15 C -0.137891 3.512525 2.474945 0
M  V30 16 C -0.676745 3.700080 1.233710 0
M  V30 17 F -0.443891 4.906212 0.663707 0
M  V30 18 C -1.414269 2.775297 0.536181 0
M  V30 19 F -1.906446 3.041015 -0.682436 0
M  V30 20 C -1.646128 1.550703 1.106473 0
M  V30 21 H 0.906239 -2.015508 3.958923 0
M  V30 22 H -0.169547 -2.743086 2.707145 0
M  V30 23 H 2.337224 -2.891955 2.104975 0
M  V30 24 H 2.398517 -1.129707 2.114912 0
M  V30 25 H 0.154821 -3.728824 0.963043 0
M  V30 26 H 1.523726 -3.878690 -0.135719 0
M  V30 27 H 0.339187 -3.118354 -2.023845 0
M  V30 28 H -1.057948 -3.624238 -1.039942 0
M  V30 29 H -1.002467 -1.145161 -0.109131 0
M  V30 30 H -1.586185 -1.523246 -1.761278 0
M  V30 31 H 0.059471 -0.393654 -2.759556 0
M  V30 32 H 0.111478 0.463950 -1.215535 0
M  V30 33 H 2.290539 0.124660 -1.667680 0
M  V30 34 H 2.066694 -1.409103 -2.516447 0
M  V30 35 H 2.996195 -0.893515 0.202112 0
M  V30 36 H 2.871041 -2.416824 -0.668272 0
M  V30 37 H -1.686093 -0.513935 3.786202 0
M  V30 38 H 0.059531 2.125479 4.044687 0
M  V30 39 H 0.428222 4.278144 2.969296 0
M  V30 40 H -2.211112 0.750628 0.654048 0
M  V30 END ATOM
M  V30 BEGIN BOND
M  V30 1 2 1 2
M  V30 2 1 2 3
M  V30 3 1 3 4
M  V30 4 1 4 5
M  V30 5 1 5 6
M  V30 6 1 6 7
M  V30 7 1 7 8
M  V30 8 1 8 9
M  V30 9 1 9 10
M  V30 10 1 10 11
M  V30 11 1 2 12
M  V30 12 1 12 13
M  V30 13 2 13 14
M  V30 14 1 14 15
M  V30 15 2 15 16
M  V30 16 1 16 17
M  V30 17 1 16 18
M  V30 18 1 18 19
M  V30 19 2 18 20
M  V30 20 1 11 5
M  V30 21 1 20 13
M  V30 22 1 3 21
M  V30 23 1 3 22
M  V30 24 1 4 23
M  V30 25 1 4 24
M  V30 26 1 6 25
M  V30 27 1 6 26
M  V30 28 1 7 27
M  V30 29 1 7 28
M  V30 30 1 8 29
M  V30 31 1 8 30
M  V30 32 1 9 31
M  V30 33 1 9 32
M  V30 34 1 10 33
M  V30 35 1 10 34
M  V30 36 1 11 35
M  V30 37 1 11 36
M  V30 38 1 12 37
M  V30 39 1 14 38
M  V30 40 1 15 39
M  V30 41 1 20 40
M  V30 END BOND
M  V30 END CTAB
M  END
>  <Dataset>  (494) 
ChEMBL_Kinases

>  <Ligand_Instance>  (494) 
nan

>  <PDB_ID>  (494) 
nan

>  <Standardized_SMILES>  (494) 
O=C(CCN1CCCCCC1)Nc1ccc(F)c(F)c1

>  <Name>  (494) 
nan

>  <Pocket>  (494) 
nan

>  <ATP_Site>  (494) 
nan

>  <Peripheral>  (494) 
nan

>  <Num_H_Atoms_ProtBoundConf>  (494) 
nan

>  <Num_Resolved_Atoms>  (494) 
nan

>  <Num_Not_Resolved_Atoms>  (494) 
nan

$$$$
CHEMBL1455874
     RDKit          3D

  0  0  0  0  0  0  0  0  0  0999 V3000
M  V30 BEGIN CTAB
M  V30 COUNTS 34 35 0 0 0
M  V30 BEGIN ATOM
M  V30 1 C -2.489909 -1.994545 3.806259 0
M  V30 2 C -1.089538 -2.205715 4.269785 0
M  V30 3 O -0.176525 -2.532286 3.244967 0
M  V30 4 C 0.093796 -1.717127 2.157252 0
M  V30 5 O -0.685516 -0.804523 2.486920 0
M  V30 6 C 1.027529 -2.038128 1.097910 0
M  V30 7 C 1.319333 -1.254183 0.010455 0
M  V30 8 C 0.814481 0.053919 -0.379643 0
M  V30 9 C 0.453302 0.112368 -1.731438 0
M  V30 10 C -0.045739 1.256233 -2.318033 0
M  V30 11 C -0.202481 2.397993 -1.559273 0
M  V30 12 O -0.687014 3.627681 -1.984986 0
M  V30 13 C -1.079658 3.787964 -3.337567 0
M  V30 14 C 0.153778 2.339585 -0.227178 0
M  V30 15 C 0.654283 1.199872 0.369827 0
M  V30 16 N 2.222394 -1.972148 -0.681218 0
M  V30 17 N 2.457088 -3.106905 -0.054072 0
M  V30 18 C 1.728244 -3.222314 1.095244 0
M  V30 19 N 1.721863 -4.300191 2.021822 0
M  V30 20 H -2.581190 -2.152732 2.712850 0
M  V30 21 H -2.901000 -1.012922 4.125472 0
M  V30 22 H -3.146360 -2.754105 4.277084 0
M  V30 23 H -1.043417 -3.018457 5.017313 0
M  V30 24 H -0.766173 -1.268497 4.804987 0
M  V30 25 H 0.530170 -0.717108 -2.428368 0
M  V30 26 H -0.331727 1.337647 -3.346067 0
M  V30 27 H -0.300290 3.322745 -3.974918 0
M  V30 28 H -1.171556 4.847528 -3.624435 0
M  V30 29 H -2.023391 3.213585 -3.554911 0
M  V30 30 H 0.079642 3.165388 0.476011 0
M  V30 31 H 0.952760 1.083612 1.390632 0
M  V30 32 H 3.131475 -3.855244 -0.389852 0
M  V30 33 H 0.781275 -4.728154 2.179090 0
M  V30 34 H 2.598462 -4.634320 2.506319 0
M  V30 END ATOM
M  V30 BEGIN BOND
M  V30 1 1 1 2
M  V30 2 1 2 3
M  V30 3 1 3 4
M  V30 4 2 4 5
M  V30 5 1 4 6
M  V30 6 1 6 7
M  V30 7 1 7 8
M  V30 8 2 8 9
M  V30 9 1 9 10
M  V30 10 2 10 11
M  V30 11 1 11 12
M  V30 12 1 12 13
M  V30 13 1 11 14
M  V30 14 2 14 15
M  V30 15 2 7 16
M  V30 16 1 16 17
M  V30 17 1 17 18
M  V30 18 1 18 19
M  V30 19 2 18 6
M  V30 20 1 15 8
M  V30 21 1 1 20
M  V30 22 1 1 21
M  V30 23 1 1 22
M  V30 24 1 2 23
M  V30 25 1 2 24
M  V30 26 1 9 25
M  V30 27 1 10 26
M  V30 28 1 13 27
M  V30 29 1 13 28
M  V30 30 1 13 29
M  V30 31 1 14 30
M  V30 32 1 15 31
M  V30 33 1 17 32
M  V30 34 1 19 33
M  V30 35 1 19 34
M  V30 END BOND
M  V30 END CTAB
M  END
>  <Dataset>  (495) 
ChEMBL_Kinases

>  <Ligand_Instance>  (495) 
nan

>  <PDB_ID>  (495) 
nan

>  <Standardized_SMILES>  (495) 
CCOC(=O)c1c(-c2ccc(OC)cc2)n[nH]c1N

>  <Name>  (495) 
nan

>  <Pocket>  (495) 
nan

>  <ATP_Site>  (495) 
nan

>  <Peripheral>  (495) 
nan

>  <Num_H_Atoms_ProtBoundConf>  (495) 
nan

>  <Num_Resolved_Atoms>  (495) 
nan

>  <Num_Not_Resolved_Atoms>  (495) 
nan

$$$$
CHEMBL1455926
     RDKit          3D

  0  0  0  0  0  0  0  0  0  0999 V3000
M  V30 BEGIN CTAB
M  V30 COUNTS 40 43 0 0 0
M  V30 BEGIN ATOM
M  V30 1 C -3.352712 -1.023717 0.305866 0
M  V30 2 N -2.176416 -1.675634 0.107703 0
M  V30 3 C -1.040642 -1.198467 0.605647 0
M  V30 4 N 0.203974 -1.877185 0.402446 0
M  V30 5 C 0.071572 -3.098817 -0.389018 0
M  V30 6 C 1.454411 -3.705311 -0.499811 0
M  V30 7 C 2.388689 -2.680867 -1.032287 0
M  V30 8 N 1.933822 -1.799111 -2.016756 0
M  V30 9 C 0.566408 -1.689338 -2.313526 0
M  V30 10 C -0.323100 -2.780006 -1.816688 0
M  V30 11 C -1.153040 -0.025252 1.316534 0
M  V30 12 C -0.033827 0.555065 1.875625 0
M  V30 13 C -0.108291 1.729933 2.594201 0
M  V30 14 C 1.110263 2.320230 3.177328 0
M  V30 15 C 2.341916 2.164508 2.539132 0
M  V30 16 C 3.210361 2.845427 3.378402 0
M  V30 17 O 2.590678 3.360608 4.411723 0
M  V30 18 C 1.313495 3.061895 4.323236 0
M  V30 19 C -1.303746 2.388708 2.793326 0
M  V30 20 C -2.434666 1.814941 2.236269 0
M  V30 21 C -2.314965 0.644904 1.528694 0
M  V30 22 N -3.459915 0.130679 1.005991 0
M  V30 23 H -4.262383 -1.435151 -0.111092 0
M  V30 24 H 1.116029 -1.582220 0.751561 0
M  V30 25 H -0.635435 -3.819492 0.056640 0
M  V30 26 H 1.758661 -3.940503 0.554946 0
M  V30 27 H 1.454693 -4.624152 -1.120449 0
M  V30 28 H 2.853397 -2.108731 -0.177800 0
M  V30 29 H 3.268979 -3.247657 -1.458340 0
M  V30 30 H 2.599588 -1.535698 -2.764035 0
M  V30 31 H 0.433454 -1.641735 -3.434868 0
M  V30 32 H 0.157821 -0.697862 -1.956168 0
M  V30 33 H -0.075973 -3.701840 -2.418937 0
M  V30 34 H -1.370359 -2.522541 -1.956702 0
M  V30 35 H 0.945306 0.111581 1.772337 0
M  V30 36 H 2.564600 1.643608 1.620283 0
M  V30 37 H 4.286225 2.931535 3.182905 0
M  V30 38 H 0.433441 3.261130 4.922858 0
M  V30 39 H -1.428905 3.303077 3.340572 0
M  V30 40 H -3.379932 2.295013 2.368077 0
M  V30 END ATOM
M  V30 BEGIN BOND
M  V30 1 2 1 2
M  V30 2 1 2 3
M  V30 3 1 3 4
M  V30 4 1 4 5
M  V30 5 1 5 6
M  V30 6 1 6 7
M  V30 7 1 7 8
M  V30 8 1 8 9
M  V30 9 1 9 10
M  V30 10 2 3 11
M  V30 11 1 11 12
M  V30 12 2 12 13
M  V30 13 1 13 14
M  V30 14 1 14 15
M  V30 15 2 15 16
M  V30 16 1 16 17
M  V30 17 1 17 18
M  V30 18 1 13 19
M  V30 19 2 19 20
M  V30 20 1 20 21
M  V30 21 2 21 22
M  V30 22 1 22 1
M  V30 23 1 10 5
M  V30 24 1 21 11
M  V30 25 2 18 14
M  V30 26 1 1 23
M  V30 27 1 4 24
M  V30 28 1 5 25
M  V30 29 1 6 26
M  V30 30 1 6 27
M  V30 31 1 7 28
M  V30 32 1 7 29
M  V30 33 1 8 30
M  V30 34 1 9 31
M  V30 35 1 9 32
M  V30 36 1 10 33
M  V30 37 1 10 34
M  V30 38 1 12 35
M  V30 39 1 15 36
M  V30 40 1 16 37
M  V30 41 1 18 38
M  V30 42 1 19 39
M  V30 43 1 20 40
M  V30 END BOND
M  V30 END CTAB
M  END
>  <Dataset>  (496) 
ChEMBL_Kinases

>  <Ligand_Instance>  (496) 
nan

>  <PDB_ID>  (496) 
nan

>  <Standardized_SMILES>  (496) 
c1nc(NC2CCNCC2)c2cc(-c3ccoc3)ccc2n1

>  <Name>  (496) 
nan

>  <Pocket>  (496) 
nan

>  <ATP_Site>  (496) 
nan

>  <Peripheral>  (496) 
nan

>  <Num_H_Atoms_ProtBoundConf>  (496) 
nan

>  <Num_Resolved_Atoms>  (496) 
nan

>  <Num_Not_Resolved_Atoms>  (496) 
nan

$$$$
CHEMBL1456053
     RDKit          3D

  0  0  0  0  0  0  0  0  0  0999 V3000
M  V30 BEGIN CTAB
M  V30 COUNTS 47 50 0 0 0
M  V30 BEGIN ATOM
M  V30 1 O 1.594095 3.650161 2.447440 0
M  V30 2 C 0.931769 2.563804 2.450201 0
M  V30 3 N 0.726795 1.865652 1.247112 0
M  V30 4 C 1.058209 1.993918 -0.135172 0
M  V30 5 C 2.262674 1.401529 -0.532655 0
M  V30 6 C 2.703827 1.454824 -1.859584 0
M  V30 7 C 3.988709 0.814099 -2.245567 0
M  V30 8 F 3.861026 -0.523385 -2.496115 0
M  V30 9 F 4.464491 1.404867 -3.393310 0
M  V30 10 F 4.968536 1.032545 -1.272810 0
M  V30 11 C 1.897388 2.118425 -2.760378 0
M  V30 12 C 0.702710 2.714685 -2.404008 0
M  V30 13 C 0.286331 2.648506 -1.082192 0
M  V30 14 Cl -1.210442 3.374477 -0.543620 0
M  V30 15 C 0.295584 1.872131 3.623373 0
M  V30 16 C 0.894549 0.526250 3.744512 0
M  V30 17 C -0.070953 -0.569544 4.097623 0
M  V30 18 N -1.162590 -0.445922 3.149972 0
M  V30 19 C -1.546401 -1.471530 2.165052 0
M  V30 20 N -2.343149 -1.698394 1.281218 0
M  V30 21 N -2.324115 -2.811079 0.619215 0
M  V30 22 C -1.599024 -3.715078 0.745120 0
M  V30 23 N -1.541625 -4.976225 0.028136 0
M  V30 24 C -1.916011 -6.175950 0.436200 0
M  V30 25 C -1.670376 -7.072313 -0.592793 0
M  V30 26 C -1.128991 -6.291764 -1.614380 0
M  V30 27 C -1.047960 -4.970485 -1.222620 0
M  V30 28 S -0.550028 -2.999980 2.163231 0
M  V30 29 C -1.928225 0.756890 3.165594 0
M  V30 30 C -1.189658 1.973419 3.612491 0
M  V30 31 H 0.191155 0.953563 1.136475 0
M  V30 32 H 2.890630 0.882413 0.178999 0
M  V30 33 H 2.220889 2.171776 -3.796074 0
M  V30 34 H 0.061423 3.238618 -3.103815 0
M  V30 35 H 0.658050 2.482382 4.496671 0
M  V30 36 H 1.432356 0.238891 2.811295 0
M  V30 37 H 1.699206 0.481195 4.535239 0
M  V30 38 H -0.497851 -0.422422 5.102596 0
M  V30 39 H 0.457148 -1.543885 3.987617 0
M  V30 40 H -2.335974 -6.369701 1.414937 0
M  V30 41 H -1.864808 -8.136490 -0.580441 0
M  V30 42 H -0.838490 -6.740495 -2.555143 0
M  V30 43 H -0.658730 -4.192838 -1.859489 0
M  V30 44 H -2.403098 0.908778 2.173800 0
M  V30 45 H -2.801400 0.550343 3.854199 0
M  V30 46 H -1.431235 2.801888 2.911815 0
M  V30 47 H -1.596328 2.307177 4.591633 0
M  V30 END ATOM
M  V30 BEGIN BOND
M  V30 1 2 1 2
M  V30 2 1 2 3
M  V30 3 1 3 4
M  V30 4 2 4 5
M  V30 5 1 5 6
M  V30 6 1 6 7
M  V30 7 1 7 8
M  V30 8 1 7 9
M  V30 9 1 7 10
M  V30 10 2 6 11
M  V30 11 1 11 12
M  V30 12 2 12 13
M  V30 13 1 13 14
M  V30 14 1 2 15
M  V30 15 1 15 16
M  V30 16 1 16 17
M  V30 17 1 17 18
M  V30 18 1 18 19
M  V30 19 2 19 20
M  V30 20 1 20 21
M  V30 21 2 21 22
M  V30 22 1 22 23
M  V30 23 1 23 24
M  V30 24 2 24 25
M  V30 25 1 25 26
M  V30 26 2 26 27
M  V30 27 1 22 28
M  V30 28 1 18 29
M  V30 29 1 29 30
M  V30 30 1 13 4
M  V30 31 1 30 15
M  V30 32 1 28 19
M  V30 33 1 27 23
M  V30 34 1 3 31
M  V30 35 1 5 32
M  V30 36 1 11 33
M  V30 37 1 12 34
M  V30 38 1 15 35
M  V30 39 1 16 36
M  V30 40 1 16 37
M  V30 41 1 17 38
M  V30 42 1 17 39
M  V30 43 1 24 40
M  V30 44 1 25 41
M  V30 45 1 26 42
M  V30 46 1 27 43
M  V30 47 1 29 44
M  V30 48 1 29 45
M  V30 49 1 30 46
M  V30 50 1 30 47
M  V30 END BOND
M  V30 END CTAB
M  END
>  <Dataset>  (497) 
ChEMBL_Kinases

>  <Ligand_Instance>  (497) 
nan

>  <PDB_ID>  (497) 
nan

>  <Standardized_SMILES>  (497) 
O=C(Nc1cc(C(F)(F)F)ccc1Cl)C1CCN(c2nnc(-n3cccc3)s2)CC1

>  <Name>  (497) 
nan

>  <Pocket>  (497) 
nan

>  <ATP_Site>  (497) 
nan

>  <Peripheral>  (497) 
nan

>  <Num_H_Atoms_ProtBoundConf>  (497) 
nan

>  <Num_Resolved_Atoms>  (497) 
nan

>  <Num_Not_Resolved_Atoms>  (497) 
nan

$$$$
CHEMBL1456054
     RDKit          3D

  0  0  0  0  0  0  0  0  0  0999 V3000
M  V30 BEGIN CTAB
M  V30 COUNTS 35 36 0 0 0
M  V30 BEGIN ATOM
M  V30 1 C -1.769138 -3.019337 3.266386 0
M  V30 2 N -0.502404 -3.265831 2.561031 0
M  V30 3 C -0.049687 -4.576167 3.020243 0
M  V30 4 C -0.730579 -3.250194 1.143080 0
M  V30 5 C 0.577759 -3.505431 0.379642 0
M  V30 6 C 1.580601 -2.459980 0.701942 0
M  V30 7 O 1.322549 -1.146734 0.438121 0
M  V30 8 C 1.049129 -0.496171 -0.724010 0
M  V30 9 O 1.020255 -1.191723 -1.757304 0
M  V30 10 C 0.799356 0.943018 -0.778997 0
M  V30 11 C 0.516572 1.666450 -1.920876 0
M  V30 12 C 0.351850 2.986696 -1.514839 0
M  V30 13 C 0.060715 4.193896 -2.139375 0
M  V30 14 C -0.028167 5.361640 -1.377640 0
M  V30 15 C 0.175662 5.307697 0.002553 0
M  V30 16 C 0.466410 4.123779 0.652107 0
M  V30 17 C 0.545647 2.988353 -0.139478 0
M  V30 18 O 0.810731 1.750119 0.263455 0
M  V30 19 H -2.320061 -2.181518 2.813906 0
M  V30 20 H -1.562910 -2.812582 4.318383 0
M  V30 21 H -2.432335 -3.903203 3.201490 0
M  V30 22 H 1.062349 -4.570401 2.943862 0
M  V30 23 H -0.476927 -5.318899 2.321831 0
M  V30 24 H -0.394983 -4.794043 4.047010 0
M  V30 25 H -1.462760 -4.057505 0.934512 0
M  V30 26 H -1.206939 -2.317764 0.851614 0
M  V30 27 H 0.954413 -4.453083 0.829203 0
M  V30 28 H 0.393434 -3.721835 -0.670193 0
M  V30 29 H 2.559718 -2.737440 0.256637 0
M  V30 30 H 1.772612 -2.550082 1.812645 0
M  V30 31 H 0.431831 1.323073 -2.930611 0
M  V30 32 H -0.090174 4.186685 -3.217275 0
M  V30 33 H -0.258112 6.308722 -1.878503 0
M  V30 34 H 0.107053 6.224069 0.608410 0
M  V30 35 H 0.620696 4.094273 1.710330 0
M  V30 END ATOM
M  V30 BEGIN BOND
M  V30 1 1 1 2
M  V30 2 1 2 3
M  V30 3 1 2 4
M  V30 4 1 4 5
M  V30 5 1 5 6
M  V30 6 1 6 7
M  V30 7 1 7 8
M  V30 8 2 8 9
M  V30 9 1 8 10
M  V30 10 2 10 11
M  V30 11 1 11 12
M  V30 12 2 12 13
M  V30 13 1 13 14
M  V30 14 2 14 15
M  V30 15 1 15 16
M  V30 16 2 16 17
M  V30 17 1 17 18
M  V30 18 1 18 10
M  V30 19 1 17 12
M  V30 20 1 1 19
M  V30 21 1 1 20
M  V30 22 1 1 21
M  V30 23 1 3 22
M  V30 24 1 3 23
M  V30 25 1 3 24
M  V30 26 1 4 25
M  V30 27 1 4 26
M  V30 28 1 5 27
M  V30 29 1 5 28
M  V30 30 1 6 29
M  V30 31 1 6 30
M  V30 32 1 11 31
M  V30 33 1 13 32
M  V30 34 1 14 33
M  V30 35 1 15 34
M  V30 36 1 16 35
M  V30 END BOND
M  V30 END CTAB
M  END
>  <Dataset>  (498) 
ChEMBL_Kinases

>  <Ligand_Instance>  (498) 
nan

>  <PDB_ID>  (498) 
nan

>  <Standardized_SMILES>  (498) 
CN(C)CCCOC(=O)c1cc2ccccc2o1

>  <Name>  (498) 
nan

>  <Pocket>  (498) 
nan

>  <ATP_Site>  (498) 
nan

>  <Peripheral>  (498) 
nan

>  <Num_H_Atoms_ProtBoundConf>  (498) 
nan

>  <Num_Resolved_Atoms>  (498) 
nan

>  <Num_Not_Resolved_Atoms>  (498) 
nan

$$$$
CHEMBL1456075
     RDKit          3D

  0  0  0  0  0  0  0  0  0  0999 V3000
M  V30 BEGIN CTAB
M  V30 COUNTS 49 52 0 0 0
M  V30 BEGIN ATOM
M  V30 1 C -4.901077 -2.609422 -1.438998 0
M  V30 2 O -4.359152 -3.769867 -0.862808 0
M  V30 3 C -3.109047 -3.664541 -0.255647 0
M  V30 4 C -2.471264 -2.443474 -0.248798 0
M  V30 5 C -1.232845 -2.366518 0.359790 0
M  V30 6 N -0.442668 -1.193087 0.456402 0
M  V30 7 C 0.558904 -0.606962 -0.366275 0
M  V30 8 O 0.948343 -1.105683 -1.448170 0
M  V30 9 C 1.159951 0.645024 0.084130 0
M  V30 10 C 2.124006 1.306695 -0.605742 0
M  V30 11 C 2.446287 2.449689 0.130478 0
M  V30 12 C 3.329472 3.511025 -0.024121 0
M  V30 13 C 4.193953 3.532831 -1.242150 0
M  V30 14 N 3.395841 4.484986 0.902143 0
M  V30 15 C 2.622513 4.476013 2.002819 0
M  V30 16 C 2.721993 5.496655 2.930491 0
M  V30 17 C 1.929707 5.489648 4.060414 0
M  V30 18 C 1.037423 4.437983 4.238223 0
M  V30 19 C 0.912419 3.407230 3.336586 0
M  V30 20 C 1.721203 3.426652 2.196000 0
M  V30 21 C 1.632252 2.412922 1.260437 0
M  V30 22 O 0.900287 1.328000 1.173221 0
M  V30 23 C -0.631838 -3.465587 0.950031 0
M  V30 24 C -1.258869 -4.698602 0.951744 0
M  V30 25 O -0.795611 -5.879954 1.493435 0
M  V30 26 C 0.426644 -6.043383 2.156225 0
M  V30 27 C -2.510322 -4.778821 0.337385 0
M  V30 28 O -3.240604 -5.960234 0.273303 0
M  V30 29 C -3.122651 -6.876171 -0.786184 0
M  V30 30 H -4.901929 -1.740557 -0.730599 0
M  V30 31 H -4.263945 -2.282684 -2.296257 0
M  V30 32 H -5.943816 -2.796935 -1.696215 0
M  V30 33 H -2.857575 -1.549014 -0.676977 0
M  V30 34 H -0.761102 -0.767861 1.359310 0
M  V30 35 H 2.578831 1.034100 -1.544550 0
M  V30 36 H 3.680225 3.139528 -2.142353 0
M  V30 37 H 5.159471 2.989342 -1.043481 0
M  V30 38 H 4.503487 4.572964 -1.492673 0
M  V30 39 H 3.406297 6.329388 2.821621 0
M  V30 40 H 1.926791 6.244813 4.856630 0
M  V30 41 H 0.392843 4.385699 5.108637 0
M  V30 42 H 0.207071 2.599191 3.501602 0
M  V30 43 H 0.335190 -3.457057 1.438630 0
M  V30 44 H 0.359962 -6.801176 2.983095 0
M  V30 45 H 1.205068 -6.476842 1.464977 0
M  V30 46 H 0.855677 -5.093859 2.539309 0
M  V30 47 H -3.998863 -7.557650 -0.772562 0
M  V30 48 H -2.156864 -7.411123 -0.660496 0
M  V30 49 H -3.119169 -6.410767 -1.786409 0
M  V30 END ATOM
M  V30 BEGIN BOND
M  V30 1 1 1 2
M  V30 2 1 2 3
M  V30 3 2 3 4
M  V30 4 1 4 5
M  V30 5 1 5 6
M  V30 6 1 6 7
M  V30 7 2 7 8
M  V30 8 1 7 9
M  V30 9 2 9 10
M  V30 10 1 10 11
M  V30 11 2 11 12
M  V30 12 1 12 13
M  V30 13 1 12 14
M  V30 14 2 14 15
M  V30 15 1 15 16
M  V30 16 2 16 17
M  V30 17 1 17 18
M  V30 18 2 18 19
M  V30 19 1 19 20
M  V30 20 2 20 21
M  V30 21 1 21 22
M  V30 22 2 5 23
M  V30 23 1 23 24
M  V30 24 1 24 25
M  V30 25 1 25 26
M  V30 26 2 24 27
M  V30 27 1 27 28
M  V30 28 1 28 29
M  V30 29 1 27 3
M  V30 30 1 22 9
M  V30 31 1 21 11
M  V30 32 1 20 15
M  V30 33 1 1 30
M  V30 34 1 1 31
M  V30 35 1 1 32
M  V30 36 1 4 33
M  V30 37 1 6 34
M  V30 38 1 10 35
M  V30 39 1 13 36
M  V30 40 1 13 37
M  V30 41 1 13 38
M  V30 42 1 16 39
M  V30 43 1 17 40
M  V30 44 1 18 41
M  V30 45 1 19 42
M  V30 46 1 23 43
M  V30 47 1 26 44
M  V30 48 1 26 45
M  V30 49 1 26 46
M  V30 50 1 29 47
M  V30 51 1 29 48
M  V30 52 1 29 49
M  V30 END BOND
M  V30 END CTAB
M  END
>  <Dataset>  (499) 
ChEMBL_Kinases

>  <Ligand_Instance>  (499) 
nan

>  <PDB_ID>  (499) 
nan

>  <Standardized_SMILES>  (499) 
COc1cc(NC(=O)c2cc3c(C)nc4ccccc4c3o2)cc(OC)c1OC

>  <Name>  (499) 
nan

>  <Pocket>  (499) 
nan

>  <ATP_Site>  (499) 
nan

>  <Peripheral>  (499) 
nan

>  <Num_H_Atoms_ProtBoundConf>  (499) 
nan

>  <Num_Resolved_Atoms>  (499) 
nan

>  <Num_Not_Resolved_Atoms>  (499) 
nan

$$$$
CHEMBL1456116
     RDKit          3D

  0  0  0  0  0  0  0  0  0  0999 V3000
M  V30 BEGIN CTAB
M  V30 COUNTS 52 57 0 0 0
M  V30 BEGIN ATOM
M  V30 1 O 0.011840 -2.877345 -2.017206 0
M  V30 2 C 0.828558 -2.128417 -1.430734 0
M  V30 3 C 2.206954 -2.210407 -1.893889 0
M  V30 4 C 2.604301 -3.055829 -2.913821 0
M  V30 5 C 3.907301 -3.132464 -3.350698 0
M  V30 6 C 4.810254 -2.295475 -2.693343 0
M  V30 7 C 4.447471 -1.444715 -1.677052 0
M  V30 8 C 3.130297 -1.392745 -1.262927 0
M  V30 9 C 2.686172 -0.512612 -0.192910 0
M  V30 10 N 3.606811 0.286368 0.417202 0
M  V30 11 C 3.231754 1.123749 1.421003 0
M  V30 12 N 1.959896 1.213659 1.863663 0
M  V30 13 C 1.042822 0.447585 1.288061 0
M  V30 14 C -0.308579 0.443034 1.649302 0
M  V30 15 N -0.616648 1.347501 2.707031 0
M  V30 16 C -0.434396 2.788072 2.716384 0
M  V30 17 C -0.106588 3.191514 4.140026 0
M  V30 18 O 0.679643 2.182870 4.723007 0
M  V30 19 C -0.084856 1.047936 4.992344 0
M  V30 20 C -1.185010 0.864747 3.966717 0
M  V30 21 C -1.242091 -0.381574 1.014041 0
M  V30 22 C -0.868725 -1.249416 -0.021860 0
M  V30 23 N -1.944784 -2.020624 -0.550211 0
M  V30 24 C -2.322426 -3.428788 -0.664189 0
M  V30 25 C -3.678783 -3.587991 0.050988 0
M  V30 26 O -4.641873 -2.808823 -0.595824 0
M  V30 27 C -4.278131 -1.470775 -0.363941 0
M  V30 28 C -3.018588 -1.217895 -1.163890 0
M  V30 29 C 0.467754 -1.219960 -0.352552 0
M  V30 30 C 1.390357 -0.411018 0.268994 0
M  V30 31 H 1.878254 -3.691937 -3.402575 0
M  V30 32 H 4.217879 -3.788437 -4.142683 0
M  V30 33 H 5.861077 -2.304236 -2.988438 0
M  V30 34 H 5.182550 -0.818796 -1.201756 0
M  V30 35 H 3.962132 1.768834 1.917138 0
M  V30 36 H 0.444679 3.117514 2.108330 0
M  V30 37 H -1.362965 3.326227 2.444360 0
M  V30 38 H -1.015261 3.382006 4.741267 0
M  V30 39 H 0.525640 4.115585 4.169000 0
M  V30 40 H 0.537323 0.129745 4.978671 0
M  V30 41 H -0.485389 1.173563 6.010406 0
M  V30 42 H -1.416289 -0.199118 3.902631 0
M  V30 43 H -2.076718 1.487347 4.211198 0
M  V30 44 H -2.201808 -0.229606 1.437820 0
M  V30 45 H -1.627632 -4.118436 -0.195245 0
M  V30 46 H -2.556153 -3.615797 -1.730415 0
M  V30 47 H -3.578541 -3.169112 1.075813 0
M  V30 48 H -3.944856 -4.654117 0.053698 0
M  V30 49 H -5.042322 -0.777958 -0.797520 0
M  V30 50 H -4.173200 -1.351196 0.713480 0
M  V30 51 H -2.782477 -0.147966 -1.202658 0
M  V30 52 H -3.262288 -1.620818 -2.192548 0
M  V30 END ATOM
M  V30 BEGIN BOND
M  V30 1 2 1 2
M  V30 2 1 2 3
M  V30 3 2 3 4
M  V30 4 1 4 5
M  V30 5 2 5 6
M  V30 6 1 6 7
M  V30 7 2 7 8
M  V30 8 1 8 9
M  V30 9 1 9 10
M  V30 10 2 10 11
M  V30 11 1 11 12
M  V30 12 2 12 13
M  V30 13 1 13 14
M  V30 14 1 14 15
M  V30 15 1 15 16
M  V30 16 1 16 17
M  V30 17 1 17 18
M  V30 18 1 18 19
M  V30 19 1 19 20
M  V30 20 2 14 21
M  V30 21 1 21 22
M  V30 22 1 22 23
M  V30 23 1 23 24
M  V30 24 1 24 25
M  V30 25 1 25 26
M  V30 26 1 26 27
M  V30 27 1 27 28
M  V30 28 2 22 29
M  V30 29 1 29 30
M  V30 30 1 29 2
M  V30 31 1 8 3
M  V30 32 2 30 9
M  V30 33 1 30 13
M  V30 34 1 20 15
M  V30 35 1 28 23
M  V30 36 1 4 31
M  V30 37 1 5 32
M  V30 38 1 6 33
M  V30 39 1 7 34
M  V30 40 1 11 35
M  V30 41 1 16 36
M  V30 42 1 16 37
M  V30 43 1 17 38
M  V30 44 1 17 39
M  V30 45 1 19 40
M  V30 46 1 19 41
M  V30 47 1 20 42
M  V30 48 1 20 43
M  V30 49 1 21 44
M  V30 50 1 24 45
M  V30 51 1 24 46
M  V30 52 1 25 47
M  V30 53 1 25 48
M  V30 54 1 27 49
M  V30 55 1 27 50
M  V30 56 1 28 51
M  V30 57 1 28 52
M  V30 END BOND
M  V30 END CTAB
M  END
>  <Dataset>  (500) 
ChEMBL_Kinases

>  <Ligand_Instance>  (500) 
nan

>  <PDB_ID>  (500) 
nan

>  <Standardized_SMILES>  (500) 
O=C1c2ccccc2-c2ncnc3c(N4CCOCC4)cc(N4CCOCC4)c1c23

>  <Name>  (500) 
nan

>  <Pocket>  (500) 
nan

>  <ATP_Site>  (500) 
nan

>  <Peripheral>  (500) 
nan

>  <Num_H_Atoms_ProtBoundConf>  (500) 
nan

>  <Num_Resolved_Atoms>  (500) 
nan

>  <Num_Not_Resolved_Atoms>  (500) 
nan

$$$$
CHEMBL1456242
     RDKit          3D

  0  0  0  0  0  0  0  0  0  0999 V3000
M  V30 BEGIN CTAB
M  V30 COUNTS 27 28 0 0 0
M  V30 BEGIN ATOM
M  V30 1 C -0.840631 -3.475371 1.688234 0
M  V30 2 O -0.358699 -2.229083 1.286911 0
M  V30 3 C 0.858098 -1.749584 1.667302 0
M  V30 4 O 1.203974 -2.733895 2.361134 0
M  V30 5 C 1.647449 -0.551598 1.451861 0
M  V30 6 C 1.162405 0.436700 0.673641 0
M  V30 7 C -0.073383 0.532275 -0.092919 0
M  V30 8 C -0.913795 1.622497 0.055814 0
M  V30 9 C -2.091477 1.796884 -0.638536 0
M  V30 10 C -2.437474 0.809460 -1.535435 0
M  V30 11 C -1.658817 -0.309229 -1.746032 0
M  V30 12 C -0.496191 -0.407537 -1.011573 0
M  V30 13 C 1.982573 1.546473 0.555177 0
M  V30 14 S 3.427959 1.141050 1.562731 0
M  V30 15 C 2.864091 -0.441897 2.067121 0
M  V30 16 N 3.546216 -1.345056 2.909108 0
M  V30 17 H -0.092819 -4.298404 1.659624 0
M  V30 18 H -1.306322 -3.410612 2.693231 0
M  V30 19 H -1.678996 -3.723280 0.973282 0
M  V30 20 H -0.663219 2.418075 0.758996 0
M  V30 21 H -2.742277 2.640331 -0.523850 0
M  V30 22 H -3.352598 0.899580 -2.105019 0
M  V30 23 H -1.962496 -1.059558 -2.455655 0
M  V30 24 H 0.102248 -1.279005 -1.195711 0
M  V30 25 H 1.925067 2.492004 0.036400 0
M  V30 26 H 4.426510 -1.760969 2.526383 0
M  V30 27 H 3.368265 -1.704612 3.856015 0
M  V30 END ATOM
M  V30 BEGIN BOND
M  V30 1 1 1 2
M  V30 2 1 2 3
M  V30 3 2 3 4
M  V30 4 1 3 5
M  V30 5 1 5 6
M  V30 6 1 6 7
M  V30 7 2 7 8
M  V30 8 1 8 9
M  V30 9 2 9 10
M  V30 10 1 10 11
M  V30 11 2 11 12
M  V30 12 2 6 13
M  V30 13 1 13 14
M  V30 14 1 14 15
M  V30 15 1 15 16
M  V30 16 2 15 5
M  V30 17 1 12 7
M  V30 18 1 1 17
M  V30 19 1 1 18
M  V30 20 1 1 19
M  V30 21 1 8 20
M  V30 22 1 9 21
M  V30 23 1 10 22
M  V30 24 1 11 23
M  V30 25 1 12 24
M  V30 26 1 13 25
M  V30 27 1 16 26
M  V30 28 1 16 27
M  V30 END BOND
M  V30 END CTAB
M  END
>  <Dataset>  (501) 
ChEMBL_Kinases

>  <Ligand_Instance>  (501) 
nan

>  <PDB_ID>  (501) 
nan

>  <Standardized_SMILES>  (501) 
COC(=O)c1c(-c2ccccc2)csc1N

>  <Name>  (501) 
nan

>  <Pocket>  (501) 
nan

>  <ATP_Site>  (501) 
nan

>  <Peripheral>  (501) 
nan

>  <Num_H_Atoms_ProtBoundConf>  (501) 
nan

>  <Num_Resolved_Atoms>  (501) 
nan

>  <Num_Not_Resolved_Atoms>  (501) 
nan

$$$$
CHEMBL1456679
     RDKit          3D

  0  0  0  0  0  0  0  0  0  0999 V3000
M  V30 BEGIN CTAB
M  V30 COUNTS 30 30 0 0 0
M  V30 BEGIN ATOM
M  V30 1 C -0.721758 -3.300666 -0.426846 0
M  V30 2 O 0.131044 -2.309137 0.095871 0
M  V30 3 C 1.444607 -2.602647 0.431097 0
M  V30 4 O 1.984569 -3.743965 0.305482 0
M  V30 5 C 2.494926 -1.724235 0.986430 0
M  V30 6 C 2.966528 -2.312345 2.303416 0
M  V30 7 N 1.971763 -0.372447 1.171243 0
M  V30 8 C 2.887682 0.554288 1.696943 0
M  V30 9 N 3.661539 1.318367 2.130290 0
M  V30 10 C 0.666379 0.176556 0.904147 0
M  V30 11 N 0.348046 0.725670 -0.295758 0
M  V30 12 C -0.872548 1.237051 -0.540080 0
M  V30 13 C -1.184591 1.831286 -1.869336 0
M  V30 14 N -1.815916 1.206420 0.434938 0
M  V30 15 C -1.538275 0.665539 1.650784 0
M  V30 16 C -2.514293 0.593399 2.770117 0
M  V30 17 N -0.300841 0.172529 1.828988 0
M  V30 18 H -0.201092 -4.292598 -0.471977 0
M  V30 19 H -1.050466 -3.048512 -1.454419 0
M  V30 20 H -1.610914 -3.451848 0.245260 0
M  V30 21 H 3.339275 -1.649065 0.283214 0
M  V30 22 H 4.050665 -2.142816 2.401439 0
M  V30 23 H 2.715462 -3.390746 2.324784 0
M  V30 24 H 2.383169 -1.832210 3.120299 0
M  V30 25 H -2.285064 1.872053 -1.992712 0
M  V30 26 H -0.754981 2.870969 -1.897595 0
M  V30 27 H -0.786979 1.234470 -2.694408 0
M  V30 28 H -2.007714 0.977854 3.682291 0
M  V30 29 H -2.789836 -0.482875 2.905243 0
M  V30 30 H -3.407512 1.202523 2.553758 0
M  V30 END ATOM
M  V30 BEGIN BOND
M  V30 1 1 1 2
M  V30 2 1 2 3
M  V30 3 2 3 4
M  V30 4 1 3 5
M  V30 5 1 5 6
M  V30 6 1 5 7
M  V30 7 1 7 8
M  V30 8 3 8 9
M  V30 9 1 7 10
M  V30 10 2 10 11
M  V30 11 1 11 12
M  V30 12 1 12 13
M  V30 13 2 12 14
M  V30 14 1 14 15
M  V30 15 1 15 16
M  V30 16 2 15 17
M  V30 17 1 17 10
M  V30 18 1 1 18
M  V30 19 1 1 19
M  V30 20 1 1 20
M  V30 21 1 5 21
M  V30 22 1 6 22
M  V30 23 1 6 23
M  V30 24 1 6 24
M  V30 25 1 13 25
M  V30 26 1 13 26
M  V30 27 1 13 27
M  V30 28 1 16 28
M  V30 29 1 16 29
M  V30 30 1 16 30
M  V30 END BOND
M  V30 END CTAB
M  END
>  <Dataset>  (502) 
ChEMBL_Kinases

>  <Ligand_Instance>  (502) 
nan

>  <PDB_ID>  (502) 
nan

>  <Standardized_SMILES>  (502) 
COC(=O)C(C)N(C#N)c1nc(C)nc(C)n1

>  <Name>  (502) 
nan

>  <Pocket>  (502) 
nan

>  <ATP_Site>  (502) 
nan

>  <Peripheral>  (502) 
nan

>  <Num_H_Atoms_ProtBoundConf>  (502) 
nan

>  <Num_Resolved_Atoms>  (502) 
nan

>  <Num_Not_Resolved_Atoms>  (502) 
nan

$$$$
CHEMBL1456740
     RDKit          3D

  0  0  0  0  0  0  0  0  0  0999 V3000
M  V30 BEGIN CTAB
M  V30 COUNTS 37 39 0 0 0
M  V30 BEGIN ATOM
M  V30 1 C -1.674105 -4.565647 2.768997 0
M  V30 2 C -1.005600 -5.599459 1.878773 0
M  V30 3 C 0.428945 -5.221783 1.580660 0
M  V30 4 C 0.533882 -3.923638 0.890013 0
M  V30 5 C 1.795127 -3.469774 0.565123 0
M  V30 6 C 2.001501 -2.269287 -0.081150 0
M  V30 7 O 3.285413 -1.847796 -0.390465 0
M  V30 8 N 0.931606 -1.510126 -0.408140 0
M  V30 9 N 0.853408 -0.333581 -1.022725 0
M  V30 10 C -0.447166 0.011093 -1.115937 0
M  V30 11 S -1.346538 1.403612 -1.789123 0
M  V30 12 C -1.567463 2.714150 -0.541639 0
M  V30 13 C -0.309530 3.345151 -0.134465 0
M  V30 14 C 0.210718 4.467681 -0.785273 0
M  V30 15 C 1.407255 5.038283 -0.369245 0
M  V30 16 C 2.113788 4.511241 0.698291 0
M  V30 17 C 1.649211 3.397686 1.385224 0
M  V30 18 C 0.447938 2.882285 0.912830 0
M  V30 19 N -1.144258 -0.988946 -0.541561 0
M  V30 20 C -0.313794 -1.949165 -0.092077 0
M  V30 21 N -0.468908 -3.129679 0.540284 0
M  V30 22 H -0.968757 -3.716592 2.918874 0
M  V30 23 H -2.571229 -4.149193 2.251141 0
M  V30 24 H -2.017608 -4.990256 3.730122 0
M  V30 25 H -0.999909 -6.557783 2.436251 0
M  V30 26 H -1.586792 -5.795533 0.955619 0
M  V30 27 H 0.847354 -5.995415 0.905286 0
M  V30 28 H 0.971165 -5.192513 2.549818 0
M  V30 29 H 2.695511 -4.045219 0.806808 0
M  V30 30 H 3.505213 -0.873103 -0.578131 0
M  V30 31 H -2.129258 2.288947 0.336636 0
M  V30 32 H -2.250800 3.458762 -1.038611 0
M  V30 33 H -0.327258 4.894941 -1.622920 0
M  V30 34 H 1.833152 5.905430 -0.852944 0
M  V30 35 H 3.047285 4.930142 1.047667 0
M  V30 36 H 2.124829 2.918218 2.221711 0
M  V30 37 H 0.043318 2.000442 1.427250 0
M  V30 END ATOM
M  V30 BEGIN BOND
M  V30 1 1 1 2
M  V30 2 1 2 3
M  V30 3 1 3 4
M  V30 4 1 4 5
M  V30 5 2 5 6
M  V30 6 1 6 7
M  V30 7 1 6 8
M  V30 8 1 8 9
M  V30 9 2 9 10
M  V30 10 1 10 11
M  V30 11 1 11 12
M  V30 12 1 12 13
M  V30 13 2 13 14
M  V30 14 1 14 15
M  V30 15 2 15 16
M  V30 16 1 16 17
M  V30 17 2 17 18
M  V30 18 1 10 19
M  V30 19 2 19 20
M  V30 20 1 20 21
M  V30 21 2 21 4
M  V30 22 1 20 8
M  V30 23 1 18 13
M  V30 24 1 1 22
M  V30 25 1 1 23
M  V30 26 1 1 24
M  V30 27 1 2 25
M  V30 28 1 2 26
M  V30 29 1 3 27
M  V30 30 1 3 28
M  V30 31 1 5 29
M  V30 32 1 7 30
M  V30 33 1 12 31
M  V30 34 1 12 32
M  V30 35 1 14 33
M  V30 36 1 15 34
M  V30 37 1 16 35
M  V30 38 1 17 36
M  V30 39 1 18 37
M  V30 END BOND
M  V30 END CTAB
M  END
>  <Dataset>  (503) 
ChEMBL_Kinases

>  <Ligand_Instance>  (503) 
nan

>  <PDB_ID>  (503) 
nan

>  <Standardized_SMILES>  (503) 
CCCc1cc(O)n2nc(SCc3ccccc3)nc2n1

>  <Name>  (503) 
nan

>  <Pocket>  (503) 
nan

>  <ATP_Site>  (503) 
nan

>  <Peripheral>  (503) 
nan

>  <Num_H_Atoms_ProtBoundConf>  (503) 
nan

>  <Num_Resolved_Atoms>  (503) 
nan

>  <Num_Not_Resolved_Atoms>  (503) 
nan

$$$$
CHEMBL1456751
     RDKit          3D

  0  0  0  0  0  0  0  0  0  0999 V3000
M  V30 BEGIN CTAB
M  V30 COUNTS 52 54 0 0 0
M  V30 BEGIN ATOM
M  V30 1 C 3.111293 -5.957103 8.859507 0
M  V30 2 C 2.919335 -4.989768 7.717615 0
M  V30 3 O 2.793760 -5.693906 6.477832 0
M  V30 4 C 2.584662 -4.903005 5.326730 0
M  V30 5 C 2.483091 -3.524704 5.263393 0
M  V30 6 C 2.277312 -2.915508 4.050156 0
M  V30 7 C 2.179147 -3.709592 2.924837 0
M  V30 8 C 1.935470 -3.060486 1.644381 0
M  V30 9 C 1.728116 -1.715509 1.398817 0
M  V30 10 C 1.531860 -1.551669 0.046695 0
M  V30 11 C 1.245739 -0.388468 -0.841825 0
M  V30 12 C 1.153544 0.895386 -0.118336 0
M  V30 13 C 0.815296 2.103678 -0.949377 0
M  V30 14 C -0.522238 2.003304 -1.578998 0
M  V30 15 O -1.194426 1.002654 -1.210729 0
M  V30 16 N -1.132874 2.855636 -2.511831 0
M  V30 17 C -2.403170 2.768288 -3.114713 0
M  V30 18 C -3.368714 1.817941 -2.869432 0
M  V30 19 C -4.604492 1.751348 -3.477479 0
M  V30 20 C -4.923911 2.699343 -4.408977 0
M  V30 21 C -3.993856 3.677079 -4.694585 0
M  V30 22 O -4.326158 4.651218 -5.654350 0
M  V30 23 C -5.609561 4.583871 -6.287667 0
M  V30 24 C -2.779707 3.693730 -4.057644 0
M  V30 25 N 1.624217 -2.778810 -0.481818 0
M  V30 26 O 1.859198 -3.650767 0.451975 0
M  V30 27 C 2.276201 -5.094741 2.952992 0
M  V30 28 C 2.484754 -5.703286 4.200547 0
M  V30 29 H 4.168926 -6.157659 9.101731 0
M  V30 30 H 2.663866 -5.508440 9.793169 0
M  V30 31 H 2.556959 -6.923403 8.676535 0
M  V30 32 H 2.051974 -4.339939 7.888396 0
M  V30 33 H 3.872320 -4.413095 7.628718 0
M  V30 34 H 2.584776 -3.076213 6.241843 0
M  V30 35 H 2.208758 -1.838904 4.071343 0
M  V30 36 H 1.710774 -0.897289 2.071238 0
M  V30 37 H 0.319197 -0.593616 -1.397375 0
M  V30 38 H 2.044989 -0.335227 -1.631504 0
M  V30 39 H 0.535737 0.863197 0.797137 0
M  V30 40 H 2.196579 1.118449 0.281424 0
M  V30 41 H 0.867973 2.987757 -0.269981 0
M  V30 42 H 1.604739 2.257285 -1.713081 0
M  V30 43 H -0.527595 3.673940 -2.781816 0
M  V30 44 H -3.194128 1.043847 -2.152663 0
M  V30 45 H -5.325417 0.962454 -3.224056 0
M  V30 46 H -5.909188 2.610620 -4.863412 0
M  V30 47 H -5.603642 5.282571 -7.146290 0
M  V30 48 H -6.427955 4.877371 -5.597236 0
M  V30 49 H -5.785381 3.542593 -6.631408 0
M  V30 50 H -2.133083 4.507107 -4.364375 0
M  V30 51 H 2.187660 -5.640593 1.999601 0
M  V30 52 H 2.551616 -6.765506 4.148037 0
M  V30 END ATOM
M  V30 BEGIN BOND
M  V30 1 1 1 2
M  V30 2 1 2 3
M  V30 3 1 3 4
M  V30 4 2 4 5
M  V30 5 1 5 6
M  V30 6 2 6 7
M  V30 7 1 7 8
M  V30 8 2 8 9
M  V30 9 1 9 10
M  V30 10 1 10 11
M  V30 11 1 11 12
M  V30 12 1 12 13
M  V30 13 1 13 14
M  V30 14 2 14 15
M  V30 15 1 14 16
M  V30 16 1 16 17
M  V30 17 2 17 18
M  V30 18 1 18 19
M  V30 19 2 19 20
M  V30 20 1 20 21
M  V30 21 1 21 22
M  V30 22 1 22 23
M  V30 23 2 21 24
M  V30 24 2 10 25
M  V30 25 1 25 26
M  V30 26 1 7 27
M  V30 27 2 27 28
M  V30 28 1 28 4
M  V30 29 1 26 8
M  V30 30 1 24 17
M  V30 31 1 1 29
M  V30 32 1 1 30
M  V30 33 1 1 31
M  V30 34 1 2 32
M  V30 35 1 2 33
M  V30 36 1 5 34
M  V30 37 1 6 35
M  V30 38 1 9 36
M  V30 39 1 11 37
M  V30 40 1 11 38
M  V30 41 1 12 39
M  V30 42 1 12 40
M  V30 43 1 13 41
M  V30 44 1 13 42
M  V30 45 1 16 43
M  V30 46 1 18 44
M  V30 47 1 19 45
M  V30 48 1 20 46
M  V30 49 1 23 47
M  V30 50 1 23 48
M  V30 51 1 23 49
M  V30 52 1 24 50
M  V30 53 1 27 51
M  V30 54 1 28 52
M  V30 END BOND
M  V30 END CTAB
M  END
>  <Dataset>  (504) 
ChEMBL_Kinases

>  <Ligand_Instance>  (504) 
nan

>  <PDB_ID>  (504) 
nan

>  <Standardized_SMILES>  (504) 
CCOc1ccc(-c2cc(CCCC(=O)Nc3cccc(OC)c3)no2)cc1

>  <Name>  (504) 
nan

>  <Pocket>  (504) 
nan

>  <ATP_Site>  (504) 
nan

>  <Peripheral>  (504) 
nan

>  <Num_H_Atoms_ProtBoundConf>  (504) 
nan

>  <Num_Resolved_Atoms>  (504) 
nan

>  <Num_Not_Resolved_Atoms>  (504) 
nan

$$$$
CHEMBL1456015
     RDKit          3D

  0  0  0  0  0  0  0  0  0  0999 V3000
M  V30 BEGIN CTAB
M  V30 COUNTS 42 44 0 0 0
M  V30 BEGIN ATOM
M  V30 1 C -1.648182 -6.250647 0.097606 0
M  V30 2 O -0.436949 -6.043306 0.728088 0
M  V30 3 C -0.124276 -4.709245 0.879327 0
M  V30 4 C -0.014199 -3.935375 -0.397237 0
M  V30 5 N 0.323823 -2.542878 -0.075227 0
M  V30 6 C 0.466922 -1.664989 -1.182808 0
M  V30 7 N 0.304989 -2.073578 -2.451343 0
M  V30 8 C 0.422444 -1.313806 -3.528975 0
M  V30 9 N 0.734542 0.006476 -3.381016 0
M  V30 10 C 0.920327 0.528302 -2.154351 0
M  V30 11 C 1.234363 1.858463 -2.012773 0
M  V30 12 C 1.420159 2.372166 -0.750939 0
M  V30 13 C 1.290811 1.550337 0.371698 0
M  V30 14 C 1.494883 2.125809 1.709138 0
M  V30 15 C 2.585293 2.953274 1.884203 0
M  V30 16 C 2.782379 3.497023 3.138572 0
M  V30 17 C 1.933465 3.240723 4.205517 0
M  V30 18 C 0.847141 2.410808 4.013887 0
M  V30 19 C 0.615230 1.842417 2.759464 0
M  V30 20 O -0.458773 1.019230 2.561675 0
M  V30 21 C -1.350339 0.733369 3.630498 0
M  V30 22 C 0.974066 0.224480 0.160880 0
M  V30 23 C 0.780681 -0.326730 -1.081247 0
M  V30 24 H -2.471940 -5.769714 0.688737 0
M  V30 25 H -1.929209 -7.337380 0.088040 0
M  V30 26 H -1.575529 -5.845385 -0.929491 0
M  V30 27 H 0.851209 -4.626807 1.420503 0
M  V30 28 H -0.871829 -4.178353 1.539968 0
M  V30 29 H -0.984436 -3.920020 -0.949878 0
M  V30 30 H 0.751270 -4.374946 -1.056278 0
M  V30 31 H 0.437737 -2.279630 0.921901 0
M  V30 32 H 0.274258 -1.727511 -4.518165 0
M  V30 33 H 1.331511 2.485327 -2.897427 0
M  V30 34 H 1.667301 3.425224 -0.666329 0
M  V30 35 H 3.277580 3.182348 1.076350 0
M  V30 36 H 3.622998 4.160980 3.354341 0
M  V30 37 H 2.075798 3.659721 5.193024 0
M  V30 38 H 0.178380 2.205107 4.842645 0
M  V30 39 H -2.281092 0.256202 3.267897 0
M  V30 40 H -1.672541 1.682888 4.138314 0
M  V30 41 H -0.804089 0.060140 4.339389 0
M  V30 42 H 0.888713 -0.353058 1.053535 0
M  V30 END ATOM
M  V30 BEGIN BOND
M  V30 1 1 1 2
M  V30 2 1 2 3
M  V30 3 1 3 4
M  V30 4 1 4 5
M  V30 5 1 5 6
M  V30 6 2 6 7
M  V30 7 1 7 8
M  V30 8 2 8 9
M  V30 9 1 9 10
M  V30 10 2 10 11
M  V30 11 1 11 12
M  V30 12 2 12 13
M  V30 13 1 13 14
M  V30 14 2 14 15
M  V30 15 1 15 16
M  V30 16 2 16 17
M  V30 17 1 17 18
M  V30 18 2 18 19
M  V30 19 1 19 20
M  V30 20 1 20 21
M  V30 21 1 13 22
M  V30 22 2 22 23
M  V30 23 1 23 6
M  V30 24 1 23 10
M  V30 25 1 19 14
M  V30 26 1 1 24
M  V30 27 1 1 25
M  V30 28 1 1 26
M  V30 29 1 3 27
M  V30 30 1 3 28
M  V30 31 1 4 29
M  V30 32 1 4 30
M  V30 33 1 5 31
M  V30 34 1 8 32
M  V30 35 1 11 33
M  V30 36 1 12 34
M  V30 37 1 15 35
M  V30 38 1 16 36
M  V30 39 1 17 37
M  V30 40 1 18 38
M  V30 41 1 21 39
M  V30 42 1 21 40
M  V30 43 1 21 41
M  V30 44 1 22 42
M  V30 END BOND
M  V30 END CTAB
M  END
>  <Dataset>  (505) 
ChEMBL_Kinases

>  <Ligand_Instance>  (505) 
nan

>  <PDB_ID>  (505) 
nan

>  <Standardized_SMILES>  (505) 
COCCNc1ncnc2ccc(-c3ccccc3OC)cc12

>  <Name>  (505) 
nan

>  <Pocket>  (505) 
nan

>  <ATP_Site>  (505) 
nan

>  <Peripheral>  (505) 
nan

>  <Num_H_Atoms_ProtBoundConf>  (505) 
nan

>  <Num_Resolved_Atoms>  (505) 
nan

>  <Num_Not_Resolved_Atoms>  (505) 
nan

$$$$
CHEMBL1461853
     RDKit          3D

  0  0  0  0  0  0  0  0  0  0999 V3000
M  V30 BEGIN CTAB
M  V30 COUNTS 30 31 0 0 0
M  V30 BEGIN ATOM
M  V30 1 C -0.144944 -2.957801 3.657016 0
M  V30 2 C 0.393860 -2.139982 2.540987 0
M  V30 3 C 1.728253 -1.919393 2.190536 0
M  V30 4 N 2.861946 -2.465201 2.873040 0 CHG=1 VAL=4
M  V30 5 O 2.971924 -1.835645 3.962371 0
M  V30 6 O 3.659655 -3.490512 2.394037 0 CHG=-1 VAL=1
M  V30 7 C 1.726973 -1.093551 1.087127 0
M  V30 8 C 2.908207 -0.605365 0.388563 0
M  V30 9 O 4.081634 -0.894458 0.735245 0
M  V30 10 S 2.730086 0.467299 -1.046889 0
M  V30 11 C 1.001481 0.768835 -1.381858 0
M  V30 12 C 0.540300 1.896501 -0.697077 0
M  V30 13 C -0.782526 2.310943 -0.817446 0
M  V30 14 C -1.653007 1.597813 -1.625871 0
M  V30 15 Br -3.485131 2.104402 -1.846578 0
M  V30 16 C -1.171384 0.497353 -2.284170 0
M  V30 17 C 0.127857 0.060214 -2.187916 0
M  V30 18 N 0.462433 -0.830155 0.787773 0
M  V30 19 N -0.349135 -1.439488 1.636003 0
M  V30 20 C -1.804722 -1.353971 1.584068 0
M  V30 21 H 0.686422 -3.247678 4.318576 0
M  V30 22 H -0.683138 -3.828895 3.245046 0
M  V30 23 H -0.839077 -2.342044 4.244769 0
M  V30 24 H 1.109465 2.540528 -0.037413 0
M  V30 25 H -1.189356 3.177989 -0.304326 0
M  V30 26 H -1.791005 -0.106613 -2.930017 0
M  V30 27 H 0.603443 -0.769910 -2.648778 0
M  V30 28 H -2.182466 -2.306862 2.036104 0
M  V30 29 H -2.172426 -0.514469 2.181085 0
M  V30 30 H -2.142746 -1.297024 0.528898 0
M  V30 END ATOM
M  V30 BEGIN BOND
M  V30 1 1 1 2
M  V30 2 2 2 3
M  V30 3 1 3 4
M  V30 4 2 4 5
M  V30 5 1 4 6
M  V30 6 1 3 7
M  V30 7 1 7 8
M  V30 8 2 8 9
M  V30 9 1 8 10
M  V30 10 1 10 11
M  V30 11 2 11 12
M  V30 12 1 12 13
M  V30 13 2 13 14
M  V30 14 1 14 15
M  V30 15 1 14 16
M  V30 16 2 16 17
M  V30 17 2 7 18
M  V30 18 1 18 19
M  V30 19 1 19 20
M  V30 20 1 19 2
M  V30 21 1 17 11
M  V30 22 1 1 21
M  V30 23 1 1 22
M  V30 24 1 1 23
M  V30 25 1 12 24
M  V30 26 1 13 25
M  V30 27 1 16 26
M  V30 28 1 17 27
M  V30 29 1 20 28
M  V30 30 1 20 29
M  V30 31 1 20 30
M  V30 END BOND
M  V30 END CTAB
M  END
>  <Dataset>  (506) 
ChEMBL_Kinases

>  <Ligand_Instance>  (506) 
nan

>  <PDB_ID>  (506) 
nan

>  <Standardized_SMILES>  (506) 
Cc1c([N+](=O)[O-])c(C(=O)Sc2ccc(Br)cc2)nn1C

>  <Name>  (506) 
nan

>  <Pocket>  (506) 
nan

>  <ATP_Site>  (506) 
nan

>  <Peripheral>  (506) 
nan

>  <Num_H_Atoms_ProtBoundConf>  (506) 
nan

>  <Num_Resolved_Atoms>  (506) 
nan

>  <Num_Not_Resolved_Atoms>  (506) 
nan

$$$$
CHEMBL1461811
     RDKit          3D

  0  0  0  0  0  0  0  0  0  0999 V3000
M  V30 BEGIN CTAB
M  V30 COUNTS 52 54 0 0 0
M  V30 BEGIN ATOM
M  V30 1 C 0.164449 1.017644 6.448652 0
M  V30 2 C 0.281650 -0.471142 6.354210 0
M  V30 3 O 1.040542 -0.867773 5.201537 0
M  V30 4 C 1.210790 -2.216421 5.016622 0
M  V30 5 O 0.591701 -2.728040 6.005789 0
M  V30 6 C 1.940162 -2.859559 3.924351 0
M  V30 7 O 2.509379 -2.007962 2.985090 0
M  V30 8 C 1.858374 -1.105336 2.187000 0
M  V30 9 C 2.761422 -0.426618 1.369231 0
M  V30 10 C 2.326389 0.549575 0.463956 0
M  V30 11 C 0.978938 0.845778 0.379180 0
M  V30 12 S 0.432315 2.066018 -0.751939 0
M  V30 13 O 1.524370 3.070390 -0.896124 0
M  V30 14 O -0.763134 2.797733 -0.210857 0
M  V30 15 N 0.089634 1.335075 -2.215292 0
M  V30 16 C 1.105322 0.681529 -2.909408 0
M  V30 17 C 0.653700 -0.759928 -3.176233 0
M  V30 18 N -0.778529 -0.888776 -2.905368 0
M  V30 19 C -1.464160 -1.896528 -2.150861 0
M  V30 20 C -2.153870 -1.362245 -1.073143 0
M  V30 21 C -2.868992 -2.218659 -0.246139 0
M  V30 22 C -2.903884 -3.592514 -0.480076 0
M  V30 23 C -2.200623 -4.088940 -1.569005 0
M  V30 24 C -1.483726 -3.253059 -2.402728 0
M  V30 25 F -0.772293 -3.655332 -3.483756 0
M  V30 26 C -1.529209 0.207293 -3.531893 0
M  V30 27 C -1.156371 1.517458 -2.824815 0
M  V30 28 C 0.088738 0.170738 1.191253 0
M  V30 29 C 0.521182 -0.783761 2.075283 0
M  V30 30 H 0.219630 1.330305 7.521112 0
M  V30 31 H 0.950726 1.495465 5.854131 0
M  V30 32 H -0.820449 1.390780 6.090950 0
M  V30 33 H -0.739492 -0.898722 6.337126 0
M  V30 34 H 0.795679 -0.882217 7.261977 0
M  V30 35 H 2.720221 -3.504214 4.372432 0
M  V30 36 H 1.241076 -3.542983 3.370895 0
M  V30 37 H 3.835516 -0.558455 1.332851 0
M  V30 38 H 2.990432 1.097183 -0.185761 0
M  V30 39 H 2.051365 0.715174 -2.370208 0
M  V30 40 H 1.262683 1.184639 -3.907464 0
M  V30 41 H 0.774732 -1.028246 -4.247878 0
M  V30 42 H 1.235848 -1.441580 -2.536901 0
M  V30 43 H -2.199878 -0.318636 -0.793677 0
M  V30 44 H -3.436045 -1.902411 0.614580 0
M  V30 45 H -3.441194 -4.304805 0.127097 0
M  V30 46 H -2.177431 -5.152383 -1.820499 0
M  V30 47 H -2.606405 0.010654 -3.395399 0
M  V30 48 H -1.241311 0.220200 -4.605195 0
M  V30 49 H -1.915807 1.822425 -2.106713 0
M  V30 50 H -1.094346 2.298095 -3.617800 0
M  V30 51 H -0.952522 0.362105 1.163166 0
M  V30 52 H -0.092953 -1.365552 2.750351 0
M  V30 END ATOM
M  V30 BEGIN BOND
M  V30 1 1 1 2
M  V30 2 1 2 3
M  V30 3 1 3 4
M  V30 4 2 4 5
M  V30 5 1 4 6
M  V30 6 1 6 7
M  V30 7 1 7 8
M  V30 8 2 8 9
M  V30 9 1 9 10
M  V30 10 2 10 11
M  V30 11 1 11 12
M  V30 12 2 12 13
M  V30 13 2 12 14
M  V30 14 1 12 15
M  V30 15 1 15 16
M  V30 16 1 16 17
M  V30 17 1 17 18
M  V30 18 1 18 19
M  V30 19 2 19 20
M  V30 20 1 20 21
M  V30 21 2 21 22
M  V30 22 1 22 23
M  V30 23 2 23 24
M  V30 24 1 24 25
M  V30 25 1 18 26
M  V30 26 1 26 27
M  V30 27 1 11 28
M  V30 28 2 28 29
M  V30 29 1 29 8
M  V30 30 1 27 15
M  V30 31 1 24 19
M  V30 32 1 1 30
M  V30 33 1 1 31
M  V30 34 1 1 32
M  V30 35 1 2 33
M  V30 36 1 2 34
M  V30 37 1 6 35
M  V30 38 1 6 36
M  V30 39 1 9 37
M  V30 40 1 10 38
M  V30 41 1 16 39
M  V30 42 1 16 40
M  V30 43 1 17 41
M  V30 44 1 17 42
M  V30 45 1 20 43
M  V30 46 1 21 44
M  V30 47 1 22 45
M  V30 48 1 23 46
M  V30 49 1 26 47
M  V30 50 1 26 48
M  V30 51 1 27 49
M  V30 52 1 27 50
M  V30 53 1 28 51
M  V30 54 1 29 52
M  V30 END BOND
M  V30 END CTAB
M  END
>  <Dataset>  (507) 
ChEMBL_Kinases

>  <Ligand_Instance>  (507) 
nan

>  <PDB_ID>  (507) 
nan

>  <Standardized_SMILES>  (507) 
CCOC(=O)COc1ccc(S(=O)(=O)N2CCN(c3ccccc3F)CC2)cc1

>  <Name>  (507) 
nan

>  <Pocket>  (507) 
nan

>  <ATP_Site>  (507) 
nan

>  <Peripheral>  (507) 
nan

>  <Num_H_Atoms_ProtBoundConf>  (507) 
nan

>  <Num_Resolved_Atoms>  (507) 
nan

>  <Num_Not_Resolved_Atoms>  (507) 
nan

$$$$
CHEMBL1461780
     RDKit          3D

  0  0  0  0  0  0  0  0  0  0999 V3000
M  V30 BEGIN CTAB
M  V30 COUNTS 65 69 0 0 0
M  V30 BEGIN ATOM
M  V30 1 C 2.220620 -3.513734 4.996695 0
M  V30 2 O 1.903668 -2.620335 3.948247 0
M  V30 3 C 2.467709 -1.351876 3.874072 0
M  V30 4 C 3.357475 -0.950502 4.842733 0
M  V30 5 C 3.904829 0.309892 4.750764 0
M  V30 6 C 3.532060 1.122784 3.679006 0
M  V30 7 C 2.630711 0.735001 2.684933 0
M  V30 8 C 2.311384 1.687241 1.593082 0
M  V30 9 C 0.880466 2.175086 1.626257 0
M  V30 10 C 0.227836 1.789807 0.321994 0
M  V30 11 N -0.641853 2.692686 -0.062171 0
M  V30 12 C -1.410681 2.578631 -1.279636 0
M  V30 13 C -1.782056 3.803709 -1.799261 0
M  V30 14 C -2.479510 3.864577 -2.990373 0
M  V30 15 C -2.803130 2.692723 -3.659621 0
M  V30 16 C -2.415204 1.483875 -3.109345 0
M  V30 17 C -1.709097 1.383386 -1.902941 0
M  V30 18 N -1.453589 0.007400 -1.571130 0
M  V30 19 C -2.550814 -0.845115 -1.908904 0
M  V30 20 O -3.700957 -0.479387 -2.257271 0
M  V30 21 C -2.564934 -2.320392 -1.922142 0
M  V30 22 C -3.705718 -2.938579 -2.704199 0
M  V30 23 C -3.561482 -4.416890 -2.609176 0
M  V30 24 O -2.597991 -4.913997 -1.951763 0
M  V30 25 O -4.482191 -5.210870 -3.240430 0
M  V30 26 C -0.289757 -0.513890 -0.953115 0
M  V30 27 C -0.641837 -1.506554 0.137480 0
M  V30 28 C -1.577117 -0.917780 1.001103 0
M  V30 29 C -2.023315 -1.680919 2.085492 0
M  V30 30 C -1.543713 -2.960679 2.272308 0
M  V30 31 F -1.945621 -3.737645 3.306749 0
M  V30 32 C -0.624200 -3.506948 1.402168 0
M  V30 33 C -0.162583 -2.784998 0.323825 0
M  V30 34 C 0.606291 0.515540 -0.332000 0
M  V30 35 C 1.913277 0.193791 -0.381599 0
M  V30 36 O 2.297744 -0.991093 -0.986404 0
M  V30 37 C 2.776168 1.220490 0.256145 0
M  V30 38 C 2.113898 -0.533214 2.824860 0
M  V30 39 H 1.526166 -4.374218 4.961561 0
M  V30 40 H 2.201349 -2.984282 5.970460 0
M  V30 41 H 3.276387 -3.865517 4.818793 0
M  V30 42 H 3.661464 -1.561295 5.681457 0
M  V30 43 H 4.606980 0.661698 5.491517 0
M  V30 44 H 4.009213 2.109752 3.674877 0
M  V30 45 H 2.925754 2.609193 1.828073 0
M  V30 46 H 0.306787 1.701407 2.451916 0
M  V30 47 H 0.772675 3.259651 1.725692 0
M  V30 48 H -1.526709 4.723392 -1.272764 0
M  V30 49 H -2.794174 4.800522 -3.439582 0
M  V30 50 H -3.348527 2.741430 -4.592407 0
M  V30 51 H -2.668757 0.627429 -3.680670 0
M  V30 52 H -2.768344 -2.648943 -0.858718 0
M  V30 53 H -1.592346 -2.770993 -2.197151 0
M  V30 54 H -3.787859 -2.566937 -3.735474 0
M  V30 55 H -4.655841 -2.701633 -2.160681 0
M  V30 56 H -4.540514 -6.191926 -3.013487 0
M  V30 57 H 0.330968 -1.057190 -1.690353 0
M  V30 58 H -2.006112 0.068383 0.936195 0
M  V30 59 H -2.752694 -1.265819 2.787326 0
M  V30 60 H -0.183760 -4.503865 1.458750 0
M  V30 61 H 0.543050 -3.032787 -0.455554 0
M  V30 62 H 3.204861 -1.069661 -1.447126 0
M  V30 63 H 2.866642 2.132807 -0.398609 0
M  V30 64 H 3.820602 0.858816 0.376861 0
M  V30 65 H 1.414890 -0.868445 2.077454 0
M  V30 END ATOM
M  V30 BEGIN BOND
M  V30 1 1 1 2
M  V30 2 1 2 3
M  V30 3 2 3 4
M  V30 4 1 4 5
M  V30 5 2 5 6
M  V30 6 1 6 7
M  V30 7 1 7 8
M  V30 8 1 8 9
M  V30 9 1 9 10
M  V30 10 2 10 11
M  V30 11 1 11 12
M  V30 12 2 12 13
M  V30 13 1 13 14
M  V30 14 2 14 15
M  V30 15 1 15 16
M  V30 16 2 16 17
M  V30 17 1 17 18
M  V30 18 1 18 19
M  V30 19 2 19 20
M  V30 20 1 19 21
M  V30 21 1 21 22
M  V30 22 1 22 23
M  V30 23 2 23 24
M  V30 24 1 23 25
M  V30 25 1 18 26
M  V30 26 1 26 27
M  V30 27 2 27 28
M  V30 28 1 28 29
M  V30 29 2 29 30
M  V30 30 1 30 31
M  V30 31 1 30 32
M  V30 32 2 32 33
M  V30 33 1 26 34
M  V30 34 2 34 35
M  V30 35 1 35 36
M  V30 36 1 35 37
M  V30 37 2 7 38
M  V30 38 1 38 3
M  V30 39 1 37 8
M  V30 40 1 34 10
M  V30 41 1 17 12
M  V30 42 1 33 27
M  V30 43 1 1 39
M  V30 44 1 1 40
M  V30 45 1 1 41
M  V30 46 1 4 42
M  V30 47 1 5 43
M  V30 48 1 6 44
M  V30 49 1 8 45
M  V30 50 1 9 46
M  V30 51 1 9 47
M  V30 52 1 13 48
M  V30 53 1 14 49
M  V30 54 1 15 50
M  V30 55 1 16 51
M  V30 56 1 21 52
M  V30 57 1 21 53
M  V30 58 1 22 54
M  V30 59 1 22 55
M  V30 60 1 25 56
M  V30 61 1 26 57
M  V30 62 1 28 58
M  V30 63 1 29 59
M  V30 64 1 32 60
M  V30 65 1 33 61
M  V30 66 1 36 62
M  V30 67 1 37 63
M  V30 68 1 37 64
M  V30 69 1 38 65
M  V30 END BOND
M  V30 END CTAB
M  END
>  <Dataset>  (508) 
ChEMBL_Kinases

>  <Ligand_Instance>  (508) 
nan

>  <PDB_ID>  (508) 
nan

>  <Standardized_SMILES>  (508) 
COc1cccc(C2CC3=Nc4ccccc4N(C(=O)CCC(=O)O)C(c4ccc(F)cc4)C3=C(O)C2)c1

>  <Name>  (508) 
nan

>  <Pocket>  (508) 
nan

>  <ATP_Site>  (508) 
nan

>  <Peripheral>  (508) 
nan

>  <Num_H_Atoms_ProtBoundConf>  (508) 
nan

>  <Num_Resolved_Atoms>  (508) 
nan

>  <Num_Not_Resolved_Atoms>  (508) 
nan

$$$$
CHEMBL1461750
     RDKit          3D

  0  0  0  0  0  0  0  0  0  0999 V3000
M  V30 BEGIN CTAB
M  V30 COUNTS 51 54 0 0 0
M  V30 BEGIN ATOM
M  V30 1 C 6.588913 -4.957840 3.582715 0
M  V30 2 O 6.457415 -4.561815 2.235137 0
M  V30 3 C 5.423151 -3.807057 1.744146 0
M  V30 4 C 4.368465 -3.329531 2.494515 0
M  V30 5 C 3.387856 -2.580573 1.886124 0
M  V30 6 C 3.370979 -2.257616 0.547810 0
M  V30 7 C 2.336245 -1.465322 -0.108610 0
M  V30 8 C 1.255280 -0.926796 0.434901 0
M  V30 9 C 0.366808 -0.173112 -0.440266 0
M  V30 10 O 0.650302 -0.010487 -1.785038 0
M  V30 11 C -0.737848 0.400171 -0.062585 0
M  V30 12 C -1.158309 0.307068 1.329516 0
M  V30 13 O -0.756571 -0.646650 2.040817 0
M  V30 14 N -2.034937 1.292559 1.920529 0
M  V30 15 C -1.997817 1.575038 3.341883 0
M  V30 16 C -2.950868 1.980969 1.030157 0
M  V30 17 C -3.447120 3.242970 1.711592 0
M  V30 18 C -2.149460 2.409125 -0.177022 0
M  V30 19 C -1.672697 1.186698 -0.931165 0
M  V30 20 C -2.880402 0.356791 -1.173650 0
M  V30 21 C -2.802252 -0.468509 -2.271914 0
M  V30 22 C -3.833599 -1.314635 -2.653667 0
M  V30 23 C -4.978892 -1.312542 -1.884141 0
M  V30 24 C -5.100739 -0.489197 -0.759045 0
M  V30 25 C -4.040233 0.329161 -0.431972 0
M  V30 26 O -4.051187 1.185320 0.660523 0
M  V30 27 C 4.433945 -2.747342 -0.172200 0
M  V30 28 C 5.434070 -3.500184 0.401161 0
M  V30 29 H 7.618318 -5.321892 3.772197 0
M  V30 30 H 5.895433 -5.770433 3.874785 0
M  V30 31 H 6.455549 -4.089041 4.286920 0
M  V30 32 H 4.347819 -3.563400 3.550075 0
M  V30 33 H 2.613529 -2.251605 2.529862 0
M  V30 34 H 2.494159 -1.308960 -1.188667 0
M  V30 35 H 1.299239 -1.192803 1.476245 0
M  V30 36 H 0.776263 0.947796 -2.127009 0
M  V30 37 H -2.942903 1.363078 3.864258 0
M  V30 38 H -1.586664 2.600726 3.550428 0
M  V30 39 H -1.236866 0.893206 3.799142 0
M  V30 40 H -2.890960 4.136368 1.349425 0
M  V30 41 H -3.387738 3.202061 2.806072 0
M  V30 42 H -4.527764 3.371981 1.454059 0
M  V30 43 H -1.326276 3.068349 0.126197 0
M  V30 44 H -2.879487 2.926726 -0.854631 0
M  V30 45 H -1.183785 1.459068 -1.888944 0
M  V30 46 H -1.932996 -0.515242 -2.913080 0
M  V30 47 H -3.787212 -1.970660 -3.516013 0
M  V30 48 H -5.845787 -1.950470 -2.112137 0
M  V30 49 H -5.978180 -0.468899 -0.145864 0
M  V30 50 H 4.521815 -2.549656 -1.252117 0
M  V30 51 H 6.251697 -3.859670 -0.226794 0
M  V30 END ATOM
M  V30 BEGIN BOND
M  V30 1 1 1 2
M  V30 2 1 2 3
M  V30 3 2 3 4
M  V30 4 1 4 5
M  V30 5 2 5 6
M  V30 6 1 6 7
M  V30 7 2 7 8
M  V30 8 1 8 9
M  V30 9 1 9 10
M  V30 10 2 9 11
M  V30 11 1 11 12
M  V30 12 2 12 13
M  V30 13 1 12 14
M  V30 14 1 14 15
M  V30 15 1 14 16
M  V30 16 1 16 17
M  V30 17 1 16 18
M  V30 18 1 18 19
M  V30 19 1 19 20
M  V30 20 2 20 21
M  V30 21 1 21 22
M  V30 22 2 22 23
M  V30 23 1 23 24
M  V30 24 2 24 25
M  V30 25 1 25 26
M  V30 26 1 6 27
M  V30 27 2 27 28
M  V30 28 1 28 3
M  V30 29 1 19 11
M  V30 30 1 25 20
M  V30 31 1 26 16
M  V30 32 1 1 29
M  V30 33 1 1 30
M  V30 34 1 1 31
M  V30 35 1 4 32
M  V30 36 1 5 33
M  V30 37 1 7 34
M  V30 38 1 8 35
M  V30 39 1 10 36
M  V30 40 1 15 37
M  V30 41 1 15 38
M  V30 42 1 15 39
M  V30 43 1 17 40
M  V30 44 1 17 41
M  V30 45 1 17 42
M  V30 46 1 18 43
M  V30 47 1 18 44
M  V30 48 1 19 45
M  V30 49 1 21 46
M  V30 50 1 22 47
M  V30 51 1 23 48
M  V30 52 1 24 49
M  V30 53 1 27 50
M  V30 54 1 28 51
M  V30 END BOND
M  V30 END CTAB
M  END
>  <Dataset>  (509) 
ChEMBL_Kinases

>  <Ligand_Instance>  (509) 
nan

>  <PDB_ID>  (509) 
nan

>  <Standardized_SMILES>  (509) 
COc1ccc(/C=C/C(O)=C2\C(=O)N(C)C3(C)CC2c2ccccc2O3)cc1

>  <Name>  (509) 
nan

>  <Pocket>  (509) 
nan

>  <ATP_Site>  (509) 
nan

>  <Peripheral>  (509) 
nan

>  <Num_H_Atoms_ProtBoundConf>  (509) 
nan

>  <Num_Resolved_Atoms>  (509) 
nan

>  <Num_Not_Resolved_Atoms>  (509) 
nan

$$$$
CHEMBL1461744
     RDKit          3D

  0  0  0  0  0  0  0  0  0  0999 V3000
M  V30 BEGIN CTAB
M  V30 COUNTS 48 50 0 0 0
M  V30 BEGIN ATOM
M  V30 1 C -4.985235 -6.241574 1.345496 0
M  V30 2 C -4.013059 -5.164581 0.913411 0
M  V30 3 C -4.688191 -3.821357 0.948263 0
M  V30 4 N -3.812578 -2.745655 0.545821 0
M  V30 5 C -2.981590 -1.999166 1.434947 0
M  V30 6 O -2.889282 -2.143467 2.671073 0
M  V30 7 C -2.259985 -1.032194 0.613774 0
M  V30 8 C -1.332168 -0.087358 0.999853 0
M  V30 9 C -0.750843 0.739950 0.044500 0
M  V30 10 C 0.238208 1.769940 0.334684 0
M  V30 11 O 0.713139 2.456068 -0.605787 0
M  V30 12 N 0.695382 2.038001 1.644429 0
M  V30 13 C 1.679385 3.043003 2.030165 0
M  V30 14 C 3.056160 2.587552 1.716892 0
M  V30 15 C 3.790367 2.772071 0.566487 0
M  V30 16 C 5.069422 2.289602 0.413295 0
M  V30 17 C 5.688785 1.575359 1.446733 0
M  V30 18 O 6.975625 1.072146 1.335044 0
M  V30 19 C 7.697708 1.274436 0.158849 0
M  V30 20 C 4.953596 1.390581 2.598506 0
M  V30 21 C 3.671576 1.875075 2.749305 0
M  V30 22 C -1.170169 0.533723 -1.251505 0
M  V30 23 C -2.093365 -0.398065 -1.676297 0
M  V30 24 C -2.659928 -1.214552 -0.694036 0
M  V30 25 C -3.671428 -2.292776 -0.838729 0
M  V30 26 O -4.882629 -1.808008 -1.327037 0
M  V30 27 H -5.016256 -7.073635 0.608508 0
M  V30 28 H -4.638210 -6.734905 2.296175 0
M  V30 29 H -5.994963 -5.849901 1.572240 0
M  V30 30 H -3.132552 -5.234876 1.546255 0
M  V30 31 H -3.791834 -5.356303 -0.175792 0
M  V30 32 H -4.984089 -3.642466 2.002444 0
M  V30 33 H -5.571785 -3.811380 0.314584 0
M  V30 34 H -1.044263 0.028556 2.020811 0
M  V30 35 H 0.310004 1.477550 2.437968 0
M  V30 36 H 1.598448 3.313398 3.084807 0
M  V30 37 H 1.524641 3.984564 1.429593 0
M  V30 38 H 3.274342 3.328533 -0.199474 0
M  V30 39 H 5.599016 2.463426 -0.510407 0
M  V30 40 H 7.093286 1.033382 -0.756185 0
M  V30 41 H 8.090075 2.299502 0.034292 0
M  V30 42 H 8.589894 0.592402 0.086257 0
M  V30 43 H 5.451466 0.834552 3.386362 0
M  V30 44 H 3.190856 1.671847 3.692018 0
M  V30 45 H -0.725553 1.174162 -2.019200 0
M  V30 46 H -2.337435 -0.456155 -2.747184 0
M  V30 47 H -3.253316 -3.119862 -1.430099 0
M  V30 48 H -5.526651 -2.558357 -1.297388 0
M  V30 END ATOM
M  V30 BEGIN BOND
M  V30 1 1 1 2
M  V30 2 1 2 3
M  V30 3 1 3 4
M  V30 4 1 4 5
M  V30 5 2 5 6
M  V30 6 1 5 7
M  V30 7 2 7 8
M  V30 8 1 8 9
M  V30 9 1 9 10
M  V30 10 2 10 11
M  V30 11 1 10 12
M  V30 12 1 12 13
M  V30 13 1 13 14
M  V30 14 2 14 15
M  V30 15 1 15 16
M  V30 16 2 16 17
M  V30 17 1 17 18
M  V30 18 1 18 19
M  V30 19 1 17 20
M  V30 20 2 20 21
M  V30 21 2 9 22
M  V30 22 1 22 23
M  V30 23 2 23 24
M  V30 24 1 24 25
M  V30 25 1 25 26
M  V30 26 1 25 4
M  V30 27 1 24 7
M  V30 28 1 21 14
M  V30 29 1 1 27
M  V30 30 1 1 28
M  V30 31 1 1 29
M  V30 32 1 2 30
M  V30 33 1 2 31
M  V30 34 1 3 32
M  V30 35 1 3 33
M  V30 36 1 8 34
M  V30 37 1 12 35
M  V30 38 1 13 36
M  V30 39 1 13 37
M  V30 40 1 15 38
M  V30 41 1 16 39
M  V30 42 1 19 40
M  V30 43 1 19 41
M  V30 44 1 19 42
M  V30 45 1 20 43
M  V30 46 1 21 44
M  V30 47 1 22 45
M  V30 48 1 23 46
M  V30 49 1 25 47
M  V30 50 1 26 48
M  V30 END BOND
M  V30 END CTAB
M  END
>  <Dataset>  (510) 
ChEMBL_Kinases

>  <Ligand_Instance>  (510) 
nan

>  <PDB_ID>  (510) 
nan

>  <Standardized_SMILES>  (510) 
CCCN1C(=O)c2cc(C(=O)NCc3ccc(OC)cc3)ccc2C1O

>  <Name>  (510) 
nan

>  <Pocket>  (510) 
nan

>  <ATP_Site>  (510) 
nan

>  <Peripheral>  (510) 
nan

>  <Num_H_Atoms_ProtBoundConf>  (510) 
nan

>  <Num_Resolved_Atoms>  (510) 
nan

>  <Num_Not_Resolved_Atoms>  (510) 
nan

$$$$
CHEMBL1461412
     RDKit          3D

  0  0  0  0  0  0  0  0  0  0999 V3000
M  V30 BEGIN CTAB
M  V30 COUNTS 52 55 0 0 0
M  V30 BEGIN ATOM
M  V30 1 C -0.529033 -2.309460 3.051886 0
M  V30 2 C 0.205065 -3.141970 2.330747 0
M  V30 3 C 0.762621 -3.100690 0.965267 0
M  V30 4 N 0.437113 -1.902752 0.231404 0
M  V30 5 C 1.229282 -0.828853 0.272615 0
M  V30 6 S 2.763878 -0.336597 1.021555 0
M  V30 7 C 2.503520 0.380938 2.674299 0
M  V30 8 C 1.706343 1.595324 2.504922 0
M  V30 9 O 0.524130 1.106143 2.357335 0
M  V30 10 C 1.857212 3.038405 2.460424 0
M  V30 11 C 3.088167 3.642934 2.586856 0
M  V30 12 C 3.262269 5.028089 2.556162 0
M  V30 13 C 2.099944 5.797421 2.386028 0
M  V30 14 O 1.961025 7.163155 2.319670 0
M  V30 15 C 2.936671 8.140374 2.407619 0
M  V30 16 C 0.882888 5.161686 2.262244 0
M  V30 17 C 0.723918 3.794626 2.295269 0
M  V30 18 N 0.621047 0.087531 -0.525821 0
M  V30 19 N -0.484110 -0.454449 -1.006632 0
M  V30 20 C -0.640974 -1.721314 -0.550449 0
M  V30 21 C -1.662363 -2.732791 -0.795356 0
M  V30 22 C -2.922493 -2.877172 -0.254450 0
M  V30 23 C -3.391864 -4.013811 -0.883821 0
M  V30 24 C -4.587831 -4.704373 -0.793272 0
M  V30 25 C -4.859097 -5.844852 -1.524627 0
M  V30 26 C -3.898222 -6.324916 -2.390021 0
M  V30 27 C -2.669315 -5.663549 -2.520488 0
M  V30 28 O -1.766162 -6.082331 -3.308128 0
M  V30 29 C -0.835248 -6.517545 -4.122693 0
M  V30 30 C -2.439135 -4.511504 -1.757323 0
M  V30 31 O -1.393329 -3.697473 -1.673660 0
M  V30 32 H -0.887941 -1.355241 2.737675 0
M  V30 33 H -0.819485 -2.572985 4.056426 0
M  V30 34 H 0.494717 -4.101726 2.801412 0
M  V30 35 H 1.861575 -3.250988 1.034580 0
M  V30 36 H 0.331597 -3.982238 0.423493 0
M  V30 37 H 2.053759 -0.342992 3.372261 0
M  V30 38 H 3.516184 0.597163 3.105701 0
M  V30 39 H 3.991150 3.084232 2.722447 0
M  V30 40 H 4.148348 5.598035 2.645513 0
M  V30 41 H 2.402210 9.137497 2.373320 0
M  V30 42 H 3.463817 8.173413 3.394650 0
M  V30 43 H 3.710625 8.114018 1.613893 0
M  V30 44 H -0.071061 5.691420 2.122243 0
M  V30 45 H -0.246900 3.329151 2.196744 0
M  V30 46 H -3.383029 -2.245670 0.463939 0
M  V30 47 H -5.349124 -4.349198 -0.121440 0
M  V30 48 H -5.816392 -6.324969 -1.394243 0
M  V30 49 H -4.090207 -7.216040 -2.973779 0
M  V30 50 H -1.068163 -7.473154 -4.669183 0
M  V30 51 H 0.126788 -6.774242 -3.558444 0
M  V30 52 H -0.490041 -5.802251 -4.941080 0
M  V30 END ATOM
M  V30 BEGIN BOND
M  V30 1 2 1 2
M  V30 2 1 2 3
M  V30 3 1 3 4
M  V30 4 1 4 5
M  V30 5 1 5 6
M  V30 6 1 6 7
M  V30 7 1 7 8
M  V30 8 2 8 9
M  V30 9 1 8 10
M  V30 10 2 10 11
M  V30 11 1 11 12
M  V30 12 2 12 13
M  V30 13 1 13 14
M  V30 14 1 14 15
M  V30 15 1 13 16
M  V30 16 2 16 17
M  V30 17 2 5 18
M  V30 18 1 18 19
M  V30 19 2 19 20
M  V30 20 1 20 21
M  V30 21 2 21 22
M  V30 22 1 22 23
M  V30 23 2 23 24
M  V30 24 1 24 25
M  V30 25 2 25 26
M  V30 26 1 26 27
M  V30 27 1 27 28
M  V30 28 1 28 29
M  V30 29 2 27 30
M  V30 30 1 30 31
M  V30 31 1 20 4
M  V30 32 1 31 21
M  V30 33 1 17 10
M  V30 34 1 30 23
M  V30 35 1 1 32
M  V30 36 1 1 33
M  V30 37 1 2 34
M  V30 38 1 3 35
M  V30 39 1 3 36
M  V30 40 1 7 37
M  V30 41 1 7 38
M  V30 42 1 11 39
M  V30 43 1 12 40
M  V30 44 1 15 41
M  V30 45 1 15 42
M  V30 46 1 15 43
M  V30 47 1 16 44
M  V30 48 1 17 45
M  V30 49 1 22 46
M  V30 50 1 24 47
M  V30 51 1 25 48
M  V30 52 1 26 49
M  V30 53 1 29 50
M  V30 54 1 29 51
M  V30 55 1 29 52
M  V30 END BOND
M  V30 END CTAB
M  END
>  <Dataset>  (511) 
ChEMBL_Kinases

>  <Ligand_Instance>  (511) 
nan

>  <PDB_ID>  (511) 
nan

>  <Standardized_SMILES>  (511) 
C=CCn1c(SCC(=O)c2ccc(OC)cc2)nnc1-c1cc2cccc(OC)c2o1

>  <Name>  (511) 
nan

>  <Pocket>  (511) 
nan

>  <ATP_Site>  (511) 
nan

>  <Peripheral>  (511) 
nan

>  <Num_H_Atoms_ProtBoundConf>  (511) 
nan

>  <Num_Resolved_Atoms>  (511) 
nan

>  <Num_Not_Resolved_Atoms>  (511) 
nan

$$$$
CHEMBL1461381
     RDKit          3D

  0  0  0  0  0  0  0  0  0  0999 V3000
M  V30 BEGIN CTAB
M  V30 COUNTS 69 72 0 0 0
M  V30 BEGIN ATOM
M  V30 1 C 3.823603 -3.098423 4.314169 0
M  V30 2 C 4.186464 -2.711834 2.869860 0
M  V30 3 N 3.514190 -1.412729 2.660816 0
M  V30 4 C 4.244151 -0.555672 3.546202 0
M  V30 5 C 3.889943 0.884052 3.607219 0
M  V30 6 C 2.439840 -1.233862 1.756047 0
M  V30 7 C 1.734069 -0.078030 1.577627 0
M  V30 8 C 0.721376 0.077333 0.662118 0
M  V30 9 C 0.326666 -0.976519 -0.184755 0
M  V30 10 C -0.762135 -0.674314 -1.135162 0 CFG=1
M  V30 11 C -0.246778 0.046114 -2.358572 0 CFG=2
M  V30 12 C -0.413858 1.532392 -2.314448 0
M  V30 13 C -1.134991 2.060224 -3.536730 0
M  V30 14 C -2.376139 1.248691 -3.831940 0
M  V30 15 C -2.143751 -0.218957 -3.948984 0
M  V30 16 C -0.733875 -0.569024 -3.637459 0 CFG=1
M  V30 17 O 0.119414 -0.133911 -4.678440 0
M  V30 18 C -0.481748 -2.057162 -3.482782 0
M  V30 19 C -1.288115 -2.652126 -2.404456 0
M  V30 20 N -1.712108 -1.697251 -1.405247 0
M  V30 21 C -2.254222 -2.340935 -0.251793 0
M  V30 22 C -3.124769 -1.586609 0.635329 0
M  V30 23 O -3.455907 -2.298893 1.645097 0
M  V30 24 N -3.690668 -0.297737 0.661237 0
M  V30 25 C -4.553260 0.185606 1.712763 0
M  V30 26 C -3.796484 0.099492 2.980534 0
M  V30 27 C -3.040698 1.213666 3.304968 0
M  V30 28 C -2.406068 0.975741 4.496160 0
M  V30 29 C -2.817026 -0.320126 4.860248 0
M  V30 30 O -3.640356 -0.781775 3.918829 0
M  V30 31 C 1.059815 -2.122062 0.026113 0
M  V30 32 C 2.071948 -2.279828 0.939953 0
M  V30 33 H 3.557897 -4.165804 4.396066 0
M  V30 34 H 4.666068 -2.873965 5.011074 0
M  V30 35 H 2.968112 -2.492487 4.697178 0
M  V30 36 H 3.873973 -3.487927 2.169314 0
M  V30 37 H 5.304984 -2.609576 2.869527 0
M  V30 38 H 4.281085 -0.922539 4.604262 0
M  V30 39 H 5.331990 -0.562370 3.189614 0
M  V30 40 H 4.702823 1.336100 4.285132 0
M  V30 41 H 2.973429 1.134181 4.167078 0
M  V30 42 H 4.056069 1.458237 2.670515 0
M  V30 43 H 1.929087 0.782885 2.155491 0
M  V30 44 H 0.202967 1.035461 0.581239 0
M  V30 45 H -1.374085 0.128736 -0.611327 0
M  V30 46 H 0.872423 -0.131685 -2.371327 0
M  V30 47 H 0.545596 2.085576 -2.249688 0
M  V30 48 H -0.976377 1.818466 -1.383429 0
M  V30 49 H -1.450239 3.097195 -3.313972 0
M  V30 50 H -0.446965 2.104218 -4.382551 0
M  V30 51 H -2.837653 1.683422 -4.742190 0
M  V30 52 H -3.137776 1.427351 -3.017858 0
M  V30 53 H -2.331016 -0.492791 -5.018493 0
M  V30 54 H -2.818425 -0.790344 -3.271169 0
M  V30 55 H 1.014686 0.117671 -4.335277 0
M  V30 56 H -0.684406 -2.549948 -4.463902 0
M  V30 57 H 0.599179 -2.180033 -3.262457 0
M  V30 58 H -0.887131 -3.590231 -2.055197 0
M  V30 59 H -2.277865 -2.955183 -2.903632 0
M  V30 60 H -2.895060 -3.190027 -0.656052 0
M  V30 61 H -1.461616 -2.900711 0.336369 0
M  V30 62 H -3.499097 0.320335 -0.120151 0
M  V30 63 H -4.933932 1.202001 1.485467 0
M  V30 64 H -5.450089 -0.488306 1.829288 0
M  V30 65 H -2.855986 2.177671 2.835490 0
M  V30 66 H -1.740230 1.510904 5.137461 0
M  V30 67 H -2.524299 -0.876077 5.757969 0
M  V30 68 H 0.766581 -2.933635 -0.623309 0
M  V30 69 H 2.485611 -3.258082 0.903252 0
M  V30 END ATOM
M  V30 BEGIN BOND
M  V30 1 1 1 2
M  V30 2 1 2 3
M  V30 3 1 3 4
M  V30 4 1 4 5
M  V30 5 1 3 6
M  V30 6 2 6 7
M  V30 7 1 7 8
M  V30 8 2 8 9
M  V30 9 1 9 10
M  V30 10 1 10 11
M  V30 11 1 11 12
M  V30 12 1 12 13
M  V30 13 1 13 14
M  V30 14 1 14 15
M  V30 15 1 15 16
M  V30 16 1 16 17 CFG=3
M  V30 17 1 16 18
M  V30 18 1 18 19
M  V30 19 1 19 20
M  V30 20 1 20 21
M  V30 21 1 21 22
M  V30 22 2 22 23
M  V30 23 1 22 24
M  V30 24 1 24 25
M  V30 25 1 25 26
M  V30 26 2 26 27
M  V30 27 1 27 28
M  V30 28 2 28 29
M  V30 29 1 29 30
M  V30 30 1 9 31
M  V30 31 2 31 32
M  V30 32 1 32 6
M  V30 33 1 20 10
M  V30 34 1 30 26
M  V30 35 1 16 11
M  V30 36 1 1 33
M  V30 37 1 1 34
M  V30 38 1 1 35
M  V30 39 1 2 36
M  V30 40 1 2 37
M  V30 41 1 4 38
M  V30 42 1 4 39
M  V30 43 1 5 40
M  V30 44 1 5 41
M  V30 45 1 5 42
M  V30 46 1 7 43
M  V30 47 1 8 44
M  V30 48 1 10 45 CFG=1
M  V30 49 1 11 46 CFG=3
M  V30 50 1 12 47
M  V30 51 1 12 48
M  V30 52 1 13 49
M  V30 53 1 13 50
M  V30 54 1 14 51
M  V30 55 1 14 52
M  V30 56 1 15 53
M  V30 57 1 15 54
M  V30 58 1 17 55
M  V30 59 1 18 56
M  V30 60 1 18 57
M  V30 61 1 19 58
M  V30 62 1 19 59
M  V30 63 1 21 60
M  V30 64 1 21 61
M  V30 65 1 24 62
M  V30 66 1 25 63
M  V30 67 1 25 64
M  V30 68 1 27 65
M  V30 69 1 28 66
M  V30 70 1 29 67
M  V30 71 1 31 68
M  V30 72 1 32 69
M  V30 END BOND
M  V30 END CTAB
M  END
>  <Dataset>  (512) 
ChEMBL_Kinases

>  <Ligand_Instance>  (512) 
nan

>  <PDB_ID>  (512) 
nan

>  <Standardized_SMILES>  (512) 
CCN(CC)c1ccc([C@H]2[C@@H]3CCCC[C@]3(O)CCN2CC(=O)NCc2ccco2)cc1

>  <Name>  (512) 
nan

>  <Pocket>  (512) 
nan

>  <ATP_Site>  (512) 
nan

>  <Peripheral>  (512) 
nan

>  <Num_H_Atoms_ProtBoundConf>  (512) 
nan

>  <Num_Resolved_Atoms>  (512) 
nan

>  <Num_Not_Resolved_Atoms>  (512) 
nan

$$$$
CHEMBL1460775
     RDKit          3D

  0  0  0  0  0  0  0  0  0  0999 V3000
M  V30 BEGIN CTAB
M  V30 COUNTS 53 56 0 0 0
M  V30 BEGIN ATOM
M  V30 1 C 1.719400 1.516716 7.353400 0
M  V30 2 C 2.866925 0.990011 6.495831 0
M  V30 3 O 2.573863 1.373838 5.161371 0
M  V30 4 C 3.395405 1.070957 4.095302 0
M  V30 5 O 4.473076 0.417316 4.291481 0
M  V30 6 N 3.144281 1.433884 2.741700 0
M  V30 7 C 4.170542 0.985882 1.847792 0
M  V30 8 C 3.791080 1.070254 0.399492 0
M  V30 9 C 2.417844 1.591144 0.153567 0
M  V30 10 N 1.425932 0.536013 0.294887 0
M  V30 11 C 0.638244 0.249644 -0.825024 0
M  V30 12 O 0.783498 0.876536 -1.901271 0
M  V30 13 C -0.404974 -0.843882 -0.712544 0
M  V30 14 C -1.267214 -1.297893 -1.623743 0
M  V30 15 C -2.124186 -2.303850 -1.290288 0
M  V30 16 C -3.129880 -3.079103 -1.803887 0
M  V30 17 C -3.768416 -3.140464 -3.090712 0
M  V30 18 C -3.459613 -2.348269 -4.175028 0
M  V30 19 C -4.067715 -2.402729 -5.410418 0
M  V30 20 C -5.078147 -3.312448 -5.628627 0
M  V30 21 C -5.432895 -4.127054 -4.596421 0
M  V30 22 C -4.785041 -4.016162 -3.398667 0
M  V30 23 F -5.226240 -4.886391 -2.435974 0
M  V30 24 N -3.561069 -3.930236 -0.864999 0
M  V30 25 N -2.933261 -3.804600 0.256457 0
M  V30 26 C -3.001271 -4.450415 1.553156 0
M  V30 27 C -2.035033 -2.799159 0.015537 0
M  V30 28 S -0.666448 -1.760088 0.750371 0
M  V30 29 C 2.118084 2.760406 1.065371 0
M  V30 30 C 1.933615 2.179465 2.450968 0
M  V30 31 H 1.294894 2.438016 6.872437 0
M  V30 32 H 2.106668 1.697748 8.372712 0
M  V30 33 H 0.891122 0.770495 7.355647 0
M  V30 34 H 3.832688 1.415981 6.819809 0
M  V30 35 H 2.821105 -0.113510 6.545332 0
M  V30 36 H 4.547139 -0.021764 2.116208 0
M  V30 37 H 5.056980 1.669501 1.979373 0
M  V30 38 H 3.813715 0.025217 -0.011558 0
M  V30 39 H 4.510479 1.639438 -0.207880 0
M  V30 40 H 2.396447 1.997364 -0.891817 0
M  V30 41 H 1.294768 0.006871 1.177292 0
M  V30 42 H -1.201810 -0.805164 -2.577434 0
M  V30 43 H -2.696392 -1.608380 -4.127091 0
M  V30 44 H -3.798417 -1.764224 -6.240192 0
M  V30 45 H -5.578268 -3.387326 -6.576414 0
M  V30 46 H -6.221246 -4.835982 -4.768950 0
M  V30 47 H -2.196547 -5.226370 1.577640 0
M  V30 48 H -2.820361 -3.711409 2.333352 0
M  V30 49 H -3.980165 -4.963443 1.634581 0
M  V30 50 H 1.184654 3.288701 0.764247 0
M  V30 51 H 2.998305 3.422683 1.049056 0
M  V30 52 H 1.040438 1.524465 2.490931 0
M  V30 53 H 1.779482 2.977789 3.211240 0
M  V30 END ATOM
M  V30 BEGIN BOND
M  V30 1 1 1 2
M  V30 2 1 2 3
M  V30 3 1 3 4
M  V30 4 2 4 5
M  V30 5 1 4 6
M  V30 6 1 6 7
M  V30 7 1 7 8
M  V30 8 1 8 9
M  V30 9 1 9 10
M  V30 10 1 10 11
M  V30 11 2 11 12
M  V30 12 1 11 13
M  V30 13 2 13 14
M  V30 14 1 14 15
M  V30 15 1 15 16
M  V30 16 1 16 17
M  V30 17 2 17 18
M  V30 18 1 18 19
M  V30 19 2 19 20
M  V30 20 1 20 21
M  V30 21 2 21 22
M  V30 22 1 22 23
M  V30 23 2 16 24
M  V30 24 1 24 25
M  V30 25 1 25 26
M  V30 26 1 25 27
M  V30 27 1 27 28
M  V30 28 1 9 29
M  V30 29 1 29 30
M  V30 30 1 30 6
M  V30 31 1 28 13
M  V30 32 2 27 15
M  V30 33 1 22 17
M  V30 34 1 1 31
M  V30 35 1 1 32
M  V30 36 1 1 33
M  V30 37 1 2 34
M  V30 38 1 2 35
M  V30 39 1 7 36
M  V30 40 1 7 37
M  V30 41 1 8 38
M  V30 42 1 8 39
M  V30 43 1 9 40
M  V30 44 1 10 41
M  V30 45 1 14 42
M  V30 46 1 18 43
M  V30 47 1 19 44
M  V30 48 1 20 45
M  V30 49 1 21 46
M  V30 50 1 26 47
M  V30 51 1 26 48
M  V30 52 1 26 49
M  V30 53 1 29 50
M  V30 54 1 29 51
M  V30 55 1 30 52
M  V30 56 1 30 53
M  V30 END BOND
M  V30 END CTAB
M  END
>  <Dataset>  (513) 
ChEMBL_Kinases

>  <Ligand_Instance>  (513) 
nan

>  <PDB_ID>  (513) 
nan

>  <Standardized_SMILES>  (513) 
CCOC(=O)N1CCC(NC(=O)c2cc3c(-c4ccccc4F)nn(C)c3s2)CC1

>  <Name>  (513) 
nan

>  <Pocket>  (513) 
nan

>  <ATP_Site>  (513) 
nan

>  <Peripheral>  (513) 
nan

>  <Num_H_Atoms_ProtBoundConf>  (513) 
nan

>  <Num_Resolved_Atoms>  (513) 
nan

>  <Num_Not_Resolved_Atoms>  (513) 
nan

$$$$
CHEMBL1460722
     RDKit          3D

  0  0  0  0  0  0  0  0  0  0999 V3000
M  V30 BEGIN CTAB
M  V30 COUNTS 38 39 0 0 0
M  V30 BEGIN ATOM
M  V30 1 C -0.202092 -4.171188 3.367794 0
M  V30 2 C 0.510068 -3.120676 2.620968 0
M  V30 3 C 1.888703 -3.069381 2.604201 0
M  V30 4 C 2.671343 -2.121570 1.932448 0
M  V30 5 C 4.144752 -2.241837 2.041085 0
M  V30 6 C 1.971968 -1.167161 1.234190 0
M  V30 7 C 2.747101 -0.176778 0.531097 0
M  V30 8 O 3.996901 -0.208578 0.571844 0
M  V30 9 C 2.428014 0.993592 -0.317375 0
M  V30 10 O 1.043218 1.199829 -0.502875 0
M  V30 11 C 0.527542 2.235957 -1.260325 0
M  V30 12 O 1.280603 3.048559 -1.823020 0
M  V30 13 C -0.918789 2.379320 -1.402365 0
M  V30 14 C -1.478387 3.414006 -2.159865 0
M  V30 15 C -2.852514 3.273833 -2.096532 0
M  V30 16 C -3.067117 2.170152 -1.310513 0
M  V30 17 N -4.210870 1.467280 -0.837229 0 CHG=1 VAL=4
M  V30 18 O -5.276142 2.005644 -1.252374 0
M  V30 19 O -4.358322 0.353275 -0.041967 0 CHG=-1 VAL=1
M  V30 20 O -1.909298 1.693687 -0.937298 0
M  V30 21 C 0.592647 -1.189413 1.230027 0
M  V30 22 C -0.146754 -2.140736 1.904956 0
M  V30 23 C -1.633991 -2.185591 1.915513 0
M  V30 24 H 0.396547 -5.094940 3.479433 0
M  V30 25 H -0.555826 -3.721483 4.301953 0
M  V30 26 H -1.117794 -4.495277 2.792078 0
M  V30 27 H 2.402247 -3.850324 3.174662 0
M  V30 28 H 4.411947 -3.069022 2.734960 0
M  V30 29 H 4.628227 -1.344883 2.480372 0
M  V30 30 H 4.610890 -2.388786 1.036974 0
M  V30 31 H 2.832371 0.824666 -1.350236 0
M  V30 32 H 2.923278 1.927157 0.064656 0
M  V30 33 H -1.013946 4.211664 -2.719564 0
M  V30 34 H -3.686096 3.810942 -2.504457 0
M  V30 35 H 0.008669 -0.467952 0.701455 0
M  V30 36 H -2.049164 -2.125343 2.958856 0
M  V30 37 H -2.023537 -3.160576 1.538176 0
M  V30 38 H -2.041677 -1.319200 1.380474 0
M  V30 END ATOM
M  V30 BEGIN BOND
M  V30 1 1 1 2
M  V30 2 2 2 3
M  V30 3 1 3 4
M  V30 4 1 4 5
M  V30 5 2 4 6
M  V30 6 1 6 7
M  V30 7 2 7 8
M  V30 8 1 7 9
M  V30 9 1 9 10
M  V30 10 1 10 11
M  V30 11 2 11 12
M  V30 12 1 11 13
M  V30 13 2 13 14
M  V30 14 1 14 15
M  V30 15 2 15 16
M  V30 16 1 16 17
M  V30 17 2 17 18
M  V30 18 1 17 19
M  V30 19 1 16 20
M  V30 20 1 6 21
M  V30 21 2 21 22
M  V30 22 1 22 23
M  V30 23 1 22 2
M  V30 24 1 20 13
M  V30 25 1 1 24
M  V30 26 1 1 25
M  V30 27 1 1 26
M  V30 28 1 3 27
M  V30 29 1 5 28
M  V30 30 1 5 29
M  V30 31 1 5 30
M  V30 32 1 9 31
M  V30 33 1 9 32
M  V30 34 1 14 33
M  V30 35 1 15 34
M  V30 36 1 21 35
M  V30 37 1 23 36
M  V30 38 1 23 37
M  V30 39 1 23 38
M  V30 END BOND
M  V30 END CTAB
M  END
>  <Dataset>  (514) 
ChEMBL_Kinases

>  <Ligand_Instance>  (514) 
nan

>  <PDB_ID>  (514) 
nan

>  <Standardized_SMILES>  (514) 
Cc1cc(C)c(C(=O)COC(=O)c2ccc([N+](=O)[O-])o2)cc1C

>  <Name>  (514) 
nan

>  <Pocket>  (514) 
nan

>  <ATP_Site>  (514) 
nan

>  <Peripheral>  (514) 
nan

>  <Num_H_Atoms_ProtBoundConf>  (514) 
nan

>  <Num_Resolved_Atoms>  (514) 
nan

>  <Num_Not_Resolved_Atoms>  (514) 
nan

$$$$
CHEMBL1460670
     RDKit          3D

  0  0  0  0  0  0  0  0  0  0999 V3000
M  V30 BEGIN CTAB
M  V30 COUNTS 48 51 0 0 0
M  V30 BEGIN ATOM
M  V30 1 C 1.955235 -3.664021 0.147442 0
M  V30 2 N 3.066634 -3.014858 -0.563133 0
M  V30 3 C 4.248710 -3.723037 -0.822531 0
M  V30 4 O 4.212298 -4.979214 -0.614981 0
M  V30 5 C 5.555656 -3.227807 -1.308926 0
M  V30 6 S 5.425983 -1.605306 -2.082772 0
M  V30 7 C 3.807410 -0.967341 -1.609841 0
M  V30 8 C 3.627897 0.340104 -1.996272 0
M  V30 9 C 2.445493 1.002007 -1.720297 0
M  V30 10 C 1.435762 0.321873 -1.042659 0
M  V30 11 N 0.155832 0.891033 -0.691619 0
M  V30 12 C 0.104125 1.522125 0.566099 0
M  V30 13 O 1.052310 1.628956 1.386738 0
M  V30 14 N -1.120916 2.120602 1.011975 0
M  V30 15 C -1.195527 2.775963 2.304910 0
M  V30 16 C -2.072448 1.873727 3.165232 0
M  V30 17 N -2.888117 0.984964 2.333672 0
M  V30 18 C -3.065928 -0.413092 2.525681 0
M  V30 19 C -3.814246 -1.310084 1.787786 0
M  V30 20 C -3.855199 -2.631911 2.141966 0
M  V30 21 C -3.174531 -3.147440 3.225912 0
M  V30 22 C -2.436880 -2.197492 3.932909 0
M  V30 23 N -2.381590 -0.895314 3.604283 0
M  V30 24 C -3.479496 1.787965 1.282107 0
M  V30 25 C -2.378788 2.175215 0.324676 0
M  V30 26 C 1.639944 -0.991981 -0.664611 0
M  V30 27 C 2.830776 -1.667551 -0.939378 0
M  V30 28 H 2.236243 -4.671634 0.505238 0
M  V30 29 H 1.735758 -2.995122 1.025072 0
M  V30 30 H 1.044162 -3.691614 -0.484241 0
M  V30 31 H 6.256924 -3.240191 -0.441798 0
M  V30 32 H 5.977133 -3.942764 -2.056464 0
M  V30 33 H 4.319913 0.984009 -2.523780 0
M  V30 34 H 2.188230 2.031457 -1.974479 0
M  V30 35 H -0.661719 0.830122 -1.335371 0
M  V30 36 H -1.593607 3.806150 2.254147 0
M  V30 37 H -0.171487 2.793460 2.745619 0
M  V30 38 H -2.717816 2.485500 3.838465 0
M  V30 39 H -1.420843 1.215461 3.768992 0
M  V30 40 H -4.319348 -0.860167 0.962529 0
M  V30 41 H -4.452118 -3.302233 1.539353 0
M  V30 42 H -3.195101 -4.179494 3.517933 0
M  V30 43 H -1.881102 -2.574475 4.804350 0
M  V30 44 H -4.005119 2.673138 1.700274 0
M  V30 45 H -4.184845 1.154460 0.676591 0
M  V30 46 H -2.409397 1.617851 -0.633487 0
M  V30 47 H -2.574012 3.255146 0.058105 0
M  V30 48 H 0.871779 -1.544355 -0.136690 0
M  V30 END ATOM
M  V30 BEGIN BOND
M  V30 1 1 1 2
M  V30 2 1 2 3
M  V30 3 2 3 4
M  V30 4 1 3 5
M  V30 5 1 5 6
M  V30 6 1 6 7
M  V30 7 2 7 8
M  V30 8 1 8 9
M  V30 9 2 9 10
M  V30 10 1 10 11
M  V30 11 1 11 12
M  V30 12 2 12 13
M  V30 13 1 12 14
M  V30 14 1 14 15
M  V30 15 1 15 16
M  V30 16 1 16 17
M  V30 17 1 17 18
M  V30 18 2 18 19
M  V30 19 1 19 20
M  V30 20 2 20 21
M  V30 21 1 21 22
M  V30 22 2 22 23
M  V30 23 1 17 24
M  V30 24 1 24 25
M  V30 25 1 10 26
M  V30 26 2 26 27
M  V30 27 1 27 2
M  V30 28 1 27 7
M  V30 29 1 25 14
M  V30 30 1 23 18
M  V30 31 1 1 28
M  V30 32 1 1 29
M  V30 33 1 1 30
M  V30 34 1 5 31
M  V30 35 1 5 32
M  V30 36 1 8 33
M  V30 37 1 9 34
M  V30 38 1 11 35
M  V30 39 1 15 36
M  V30 40 1 15 37
M  V30 41 1 16 38
M  V30 42 1 16 39
M  V30 43 1 19 40
M  V30 44 1 20 41
M  V30 45 1 21 42
M  V30 46 1 22 43
M  V30 47 1 24 44
M  V30 48 1 24 45
M  V30 49 1 25 46
M  V30 50 1 25 47
M  V30 51 1 26 48
M  V30 END BOND
M  V30 END CTAB
M  END
>  <Dataset>  (515) 
ChEMBL_Kinases

>  <Ligand_Instance>  (515) 
nan

>  <PDB_ID>  (515) 
nan

>  <Standardized_SMILES>  (515) 
CN1C(=O)CSc2ccc(NC(=O)N3CCN(c4ccccn4)CC3)cc21

>  <Name>  (515) 
nan

>  <Pocket>  (515) 
nan

>  <ATP_Site>  (515) 
nan

>  <Peripheral>  (515) 
nan

>  <Num_H_Atoms_ProtBoundConf>  (515) 
nan

>  <Num_Resolved_Atoms>  (515) 
nan

>  <Num_Not_Resolved_Atoms>  (515) 
nan

$$$$
CHEMBL1460620
     RDKit          3D

  0  0  0  0  0  0  0  0  0  0999 V3000
M  V30 BEGIN CTAB
M  V30 COUNTS 42 44 0 0 0
M  V30 BEGIN ATOM
M  V30 1 C 1.039131 -2.760658 2.500541 0
M  V30 2 N 0.621332 -1.512925 3.111703 0
M  V30 3 C 1.396613 -0.411728 3.207011 0
M  V30 4 C 2.788918 -0.223572 2.731316 0
M  V30 5 N 2.820123 0.267059 1.367257 0
M  V30 6 C 2.242573 1.481168 0.968908 0
M  V30 7 O 1.709434 2.048691 1.981694 0
M  V30 8 C 2.198262 2.087492 -0.340662 0
M  V30 9 C 1.558436 3.306413 -0.452769 0
M  V30 10 C 1.448304 3.985674 -1.641118 0
M  V30 11 C 1.982345 3.472423 -2.802295 0
M  V30 12 C 2.629386 2.254276 -2.725927 0
M  V30 13 C 2.710718 1.622580 -1.524522 0
M  V30 14 F 3.344134 0.440186 -1.482981 0
M  V30 15 N 0.609044 0.480751 3.837894 0
M  V30 16 N -0.561010 -0.026533 4.111892 0
M  V30 17 C -0.589415 -1.298022 3.662696 0
M  V30 18 S -1.992849 -2.377462 3.815792 0
M  V30 19 C -3.096150 -2.235916 2.380340 0
M  V30 20 C -2.433565 -2.731666 1.147091 0
M  V30 21 C -1.742812 -1.750578 0.467889 0
M  V30 22 C -1.083301 -2.112013 -0.702388 0
M  V30 23 C -1.118734 -3.415929 -1.171282 0
M  V30 24 Cl -0.279465 -3.837788 -2.643632 0
M  V30 25 C -1.817008 -4.402987 -0.482542 0
M  V30 26 C -2.471468 -4.028741 0.684658 0
M  V30 27 H 1.594010 -2.572540 1.561693 0
M  V30 28 H 1.702791 -3.318513 3.208904 0
M  V30 29 H 0.162019 -3.364810 2.255651 0
M  V30 30 H 3.353941 0.474412 3.403291 0
M  V30 31 H 3.337991 -1.180197 2.798521 0
M  V30 32 H 3.297450 -0.306332 0.627317 0
M  V30 33 H 1.113994 3.772866 0.416086 0
M  V30 34 H 0.940603 4.932063 -1.677768 0
M  V30 35 H 1.916481 3.972618 -3.748540 0
M  V30 36 H 3.066881 1.809537 -3.615424 0
M  V30 37 H -3.973685 -2.884425 2.560428 0
M  V30 38 H -3.455911 -1.192759 2.266939 0
M  V30 39 H -1.660763 -0.702710 0.761169 0
M  V30 40 H -0.533227 -1.404167 -1.271655 0
M  V30 41 H -1.866259 -5.421191 -0.814378 0
M  V30 42 H -3.044400 -4.726594 1.292917 0
M  V30 END ATOM
M  V30 BEGIN BOND
M  V30 1 1 1 2
M  V30 2 1 2 3
M  V30 3 1 3 4
M  V30 4 1 4 5
M  V30 5 1 5 6
M  V30 6 2 6 7
M  V30 7 1 6 8
M  V30 8 2 8 9
M  V30 9 1 9 10
M  V30 10 2 10 11
M  V30 11 1 11 12
M  V30 12 2 12 13
M  V30 13 1 13 14
M  V30 14 2 3 15
M  V30 15 1 15 16
M  V30 16 2 16 17
M  V30 17 1 17 18
M  V30 18 1 18 19
M  V30 19 1 19 20
M  V30 20 2 20 21
M  V30 21 1 21 22
M  V30 22 2 22 23
M  V30 23 1 23 24
M  V30 24 1 23 25
M  V30 25 2 25 26
M  V30 26 1 17 2
M  V30 27 1 26 20
M  V30 28 1 13 8
M  V30 29 1 1 27
M  V30 30 1 1 28
M  V30 31 1 1 29
M  V30 32 1 4 30
M  V30 33 1 4 31
M  V30 34 1 5 32
M  V30 35 1 9 33
M  V30 36 1 10 34
M  V30 37 1 11 35
M  V30 38 1 12 36
M  V30 39 1 19 37
M  V30 40 1 19 38
M  V30 41 1 21 39
M  V30 42 1 22 40
M  V30 43 1 25 41
M  V30 44 1 26 42
M  V30 END BOND
M  V30 END CTAB
M  END
>  <Dataset>  (516) 
ChEMBL_Kinases

>  <Ligand_Instance>  (516) 
nan

>  <PDB_ID>  (516) 
nan

>  <Standardized_SMILES>  (516) 
Cn1c(CNC(=O)c2ccccc2F)nnc1SCc1ccc(Cl)cc1

>  <Name>  (516) 
nan

>  <Pocket>  (516) 
nan

>  <ATP_Site>  (516) 
nan

>  <Peripheral>  (516) 
nan

>  <Num_H_Atoms_ProtBoundConf>  (516) 
nan

>  <Num_Resolved_Atoms>  (516) 
nan

>  <Num_Not_Resolved_Atoms>  (516) 
nan

$$$$
CHEMBL1460562
     RDKit          3D

  0  0  0  0  0  0  0  0  0  0999 V3000
M  V30 BEGIN CTAB
M  V30 COUNTS 52 56 0 0 0
M  V30 BEGIN ATOM
M  V30 1 C 5.110467 0.271513 2.215898 0
M  V30 2 O 4.222633 -0.519713 1.719466 0
M  V30 3 C 3.367041 -1.289236 1.218150 0
M  V30 4 C 3.269023 -1.761031 -0.066112 0
M  V30 5 C 2.222502 -2.609419 -0.360737 0
M  V30 6 C 1.260791 -3.023521 0.527313 0
M  V30 7 C 1.320104 -2.571269 1.829458 0
M  V30 8 C 2.379385 -1.717626 2.119786 0
M  V30 9 N 2.406294 -1.260769 3.472716 0
M  V30 10 C 1.707779 -0.001014 3.266886 0
M  V30 11 O 1.295084 0.340439 2.095726 0
M  V30 12 C 1.310669 1.126797 4.177126 0
M  V30 13 S -0.488309 1.101683 4.353170 0
M  V30 14 C -1.238015 1.520814 2.786792 0
M  V30 15 N -1.472608 2.822453 2.419531 0
M  V30 16 N -2.030797 2.740317 1.220458 0
M  V30 17 C -2.155584 1.457811 0.830215 0
M  V30 18 C -2.767210 1.215629 -0.516071 0
M  V30 19 C -4.237402 1.179722 -0.430072 0
M  V30 20 C -5.476707 1.234564 -0.351698 0
M  V30 21 C -6.733541 1.404093 -0.262215 0
M  V30 22 C -6.402247 2.843248 -0.150915 0
M  V30 23 S -4.521325 2.946533 -0.251986 0
M  V30 24 N -1.657442 0.701139 1.820896 0
M  V30 25 C -1.665687 -0.725149 1.701355 0
M  V30 26 O 0.405642 -3.824174 -0.058404 0
M  V30 27 C 0.731045 -3.989474 -1.333205 0
M  V30 28 C 0.186485 -4.707869 -2.380677 0
M  V30 29 C 0.739456 -4.710278 -3.650657 0
M  V30 30 C 1.881487 -3.945909 -3.824894 0
M  V30 31 C 2.455263 -3.213947 -2.804251 0
M  V30 32 C 1.878091 -3.231457 -1.544922 0
M  V30 33 H 6.011598 -0.200655 2.739085 0
M  V30 34 H 5.557635 0.988647 1.443774 0
M  V30 35 H 4.757156 0.982840 3.053294 0
M  V30 36 H 4.002399 -1.457304 -0.780924 0
M  V30 37 H 0.589199 -2.872864 2.563163 0
M  V30 38 H 2.536375 -1.144401 4.478716 0
M  V30 39 H 1.772254 0.946567 5.181912 0
M  V30 40 H 1.654609 2.078919 3.768277 0
M  V30 41 H -2.428358 0.182028 -0.866435 0
M  V30 42 H -2.378337 1.868151 -1.306637 0
M  V30 43 H -5.519054 0.061893 -0.443667 0
M  V30 44 H -7.764272 1.457154 -0.196152 0
M  V30 45 H -7.006203 3.900154 -0.018397 0
M  V30 46 H -1.150348 -1.207740 2.544979 0
M  V30 47 H -2.712543 -1.109783 1.590590 0
M  V30 48 H -1.129683 -1.070988 0.786529 0
M  V30 49 H -0.699363 -5.252086 -2.099545 0
M  V30 50 H 0.270165 -5.297900 -4.430458 0
M  V30 51 H 2.345302 -3.923768 -4.805559 0
M  V30 52 H 3.353444 -2.630305 -3.006985 0
M  V30 END ATOM
M  V30 BEGIN BOND
M  V30 1 1 1 2
M  V30 2 1 2 3
M  V30 3 2 3 4
M  V30 4 1 4 5
M  V30 5 2 5 6
M  V30 6 1 6 7
M  V30 7 2 7 8
M  V30 8 1 8 9
M  V30 9 1 9 10
M  V30 10 2 10 11
M  V30 11 1 10 12
M  V30 12 1 12 13
M  V30 13 1 13 14
M  V30 14 2 14 15
M  V30 15 1 15 16
M  V30 16 2 16 17
M  V30 17 1 17 18
M  V30 18 1 18 19
M  V30 19 2 19 20
M  V30 20 1 20 21
M  V30 21 2 21 22
M  V30 22 1 22 23
M  V30 23 1 17 24
M  V30 24 1 24 25
M  V30 25 1 6 26
M  V30 26 1 26 27
M  V30 27 2 27 28
M  V30 28 1 28 29
M  V30 29 2 29 30
M  V30 30 1 30 31
M  V30 31 2 31 32
M  V30 32 1 8 3
M  V30 33 1 24 14
M  V30 34 1 32 27
M  V30 35 1 32 5
M  V30 36 1 23 19
M  V30 37 1 1 33
M  V30 38 1 1 34
M  V30 39 1 1 35
M  V30 40 1 4 36
M  V30 41 1 7 37
M  V30 42 1 9 38
M  V30 43 1 12 39
M  V30 44 1 12 40
M  V30 45 1 18 41
M  V30 46 1 18 42
M  V30 47 1 20 43
M  V30 48 1 21 44
M  V30 49 1 22 45
M  V30 50 1 25 46
M  V30 51 1 25 47
M  V30 52 1 25 48
M  V30 53 1 28 49
M  V30 54 1 29 50
M  V30 55 1 30 51
M  V30 56 1 31 52
M  V30 END BOND
M  V30 END CTAB
M  END
>  <Dataset>  (517) 
ChEMBL_Kinases

>  <Ligand_Instance>  (517) 
nan

>  <PDB_ID>  (517) 
nan

>  <Standardized_SMILES>  (517) 
COc1cc2c(cc1NC(=O)CSc1nnc(Cc3cccs3)n1C)oc1ccccc12

>  <Name>  (517) 
nan

>  <Pocket>  (517) 
nan

>  <ATP_Site>  (517) 
nan

>  <Peripheral>  (517) 
nan

>  <Num_H_Atoms_ProtBoundConf>  (517) 
nan

>  <Num_Resolved_Atoms>  (517) 
nan

>  <Num_Not_Resolved_Atoms>  (517) 
nan

$$$$
CHEMBL1460472
     RDKit          3D

  0  0  0  0  0  0  0  0  0  0999 V3000
M  V30 BEGIN CTAB
M  V30 COUNTS 41 44 0 0 0
M  V30 BEGIN ATOM
M  V30 1 C -2.348806 -2.968483 -1.836515 0
M  V30 2 C -1.184989 -3.900296 -1.949096 0
M  V30 3 C -1.323606 -5.189706 -2.483444 0
M  V30 4 C -0.167437 -5.938465 -2.526956 0
M  V30 5 C 1.082364 -5.542910 -2.102847 0
M  V30 6 C 1.193869 -4.249851 -1.573001 0
M  V30 7 C 0.066103 -3.493266 -1.520145 0
M  V30 8 C 0.239142 -2.156023 -0.956774 0
M  V30 9 O -0.460194 -2.118313 0.105744 0
M  V30 10 N 0.985779 -0.998508 -1.355924 0
M  V30 11 C 0.714404 -0.017396 -0.350752 0
M  V30 12 C -0.377837 0.772356 -0.614685 0
M  V30 13 C -0.685236 1.747629 0.339880 0
M  V30 14 C 0.107336 1.852618 1.457465 0
M  V30 15 N -0.222549 2.804829 2.352021 0
M  V30 16 C 0.481441 3.004373 3.489440 0
M  V30 17 N 1.534788 2.192071 3.674800 0
M  V30 18 C 1.932095 1.221000 2.836810 0
M  V30 19 O 2.919727 0.467212 3.021008 0
M  V30 20 C 1.192823 1.027747 1.664599 0
M  V30 21 C 1.530058 0.065456 0.764856 0
M  V30 22 C 2.220153 2.497250 4.927701 0
M  V30 23 C 1.208881 3.327405 5.673068 0
M  V30 24 C 0.329114 3.962737 4.612009 0
M  V30 25 H -2.545433 -2.653600 -0.806194 0
M  V30 26 H -2.291286 -2.121391 -2.535569 0
M  V30 27 H -3.255466 -3.569462 -2.137217 0
M  V30 28 H -2.272672 -5.533285 -2.822327 0
M  V30 29 H -0.311590 -6.944492 -2.950852 0
M  V30 30 H 1.924500 -6.231354 -2.190579 0
M  V30 31 H 2.171596 -3.935602 -1.239470 0
M  V30 32 H 1.487951 -1.230648 -2.245048 0
M  V30 33 H -0.982514 0.674861 -1.490268 0
M  V30 34 H -1.558693 2.374977 0.123679 0
M  V30 35 H 2.377166 -0.591143 0.908787 0
M  V30 36 H 3.179166 3.023608 4.760667 0
M  V30 37 H 2.419154 1.575114 5.529879 0
M  V30 38 H 0.602732 2.701302 6.380418 0
M  V30 39 H 1.731668 4.078745 6.297944 0
M  V30 40 H -0.743772 3.926574 4.949710 0
M  V30 41 H 0.652903 4.990282 4.372262 0
M  V30 END ATOM
M  V30 BEGIN BOND
M  V30 1 1 1 2
M  V30 2 2 2 3
M  V30 3 1 3 4
M  V30 4 2 4 5
M  V30 5 1 5 6
M  V30 6 2 6 7
M  V30 7 1 7 8
M  V30 8 2 8 9
M  V30 9 1 8 10
M  V30 10 1 10 11
M  V30 11 2 11 12
M  V30 12 1 12 13
M  V30 13 2 13 14
M  V30 14 1 14 15
M  V30 15 2 15 16
M  V30 16 1 16 17
M  V30 17 1 17 18
M  V30 18 2 18 19
M  V30 19 1 18 20
M  V30 20 2 20 21
M  V30 21 1 17 22
M  V30 22 1 22 23
M  V30 23 1 23 24
M  V30 24 1 7 2
M  V30 25 1 21 11
M  V30 26 1 20 14
M  V30 27 1 24 16
M  V30 28 1 1 25
M  V30 29 1 1 26
M  V30 30 1 1 27
M  V30 31 1 3 28
M  V30 32 1 4 29
M  V30 33 1 5 30
M  V30 34 1 6 31
M  V30 35 1 10 32
M  V30 36 1 12 33
M  V30 37 1 13 34
M  V30 38 1 21 35
M  V30 39 1 22 36
M  V30 40 1 22 37
M  V30 41 1 23 38
M  V30 42 1 23 39
M  V30 43 1 24 40
M  V30 44 1 24 41
M  V30 END BOND
M  V30 END CTAB
M  END
>  <Dataset>  (518) 
ChEMBL_Kinases

>  <Ligand_Instance>  (518) 
nan

>  <PDB_ID>  (518) 
nan

>  <Standardized_SMILES>  (518) 
Cc1ccccc1C(=O)Nc1ccc2nc3n(c(=O)c2c1)CCC3

>  <Name>  (518) 
nan

>  <Pocket>  (518) 
nan

>  <ATP_Site>  (518) 
nan

>  <Peripheral>  (518) 
nan

>  <Num_H_Atoms_ProtBoundConf>  (518) 
nan

>  <Num_Resolved_Atoms>  (518) 
nan

>  <Num_Not_Resolved_Atoms>  (518) 
nan

$$$$
CHEMBL1460416
     RDKit          3D

  0  0  0  0  0  0  0  0  0  0999 V3000
M  V30 BEGIN CTAB
M  V30 COUNTS 38 40 0 0 0
M  V30 BEGIN ATOM
M  V30 1 O 2.512553 -0.532332 1.486306 0
M  V30 2 C 1.363339 -0.973709 1.682668 0
M  V30 3 N 0.980324 -2.161035 1.031660 0
M  V30 4 C 1.699628 -2.980783 0.153877 0
M  V30 5 C 2.990473 -2.798250 -0.282450 0
M  V30 6 C 3.669528 -3.628561 -1.149981 0
M  V30 7 C 3.022677 -4.745576 -1.637667 0
M  V30 8 Cl 3.764344 -5.878741 -2.741042 0
M  V30 9 C 1.725404 -4.969789 -1.227249 0
M  V30 10 C 1.090548 -4.109338 -0.358203 0
M  V30 11 N 0.503330 -0.248467 2.556622 0
M  V30 12 C -0.864397 -0.492830 2.983798 0
M  V30 13 C -1.706065 0.757956 2.848336 0
M  V30 14 N -0.997611 1.617483 1.891754 0
M  V30 15 C -1.487921 1.961824 0.604082 0
M  V30 16 N -0.832408 2.750413 -0.267028 0
M  V30 17 C -1.383671 3.024790 -1.480680 0
M  V30 18 C -2.608206 2.489153 -1.799498 0
M  V30 19 C -3.274619 1.677242 -0.892710 0
M  V30 20 N -2.691308 1.434887 0.291914 0
M  V30 21 C 0.294202 2.098168 2.403174 0
M  V30 22 C 0.952290 0.971445 3.201380 0
M  V30 23 H -0.010505 -2.433178 1.275628 0
M  V30 24 H 3.544428 -1.958134 0.054970 0
M  V30 25 H 4.687856 -3.430223 -1.456770 0
M  V30 26 H 1.180103 -5.830061 -1.582324 0
M  V30 27 H 0.054279 -4.348532 -0.071747 0
M  V30 28 H -0.905983 -0.809482 4.039263 0
M  V30 29 H -1.313427 -1.247822 2.304643 0
M  V30 30 H -1.679894 1.296147 3.811376 0
M  V30 31 H -2.723919 0.525208 2.497396 0
M  V30 32 H -0.745834 3.666264 -2.067047 0
M  V30 33 H -2.983999 2.741966 -2.763373 0
M  V30 34 H -4.231876 1.293818 -1.215217 0
M  V30 35 H 0.959284 2.332930 1.546484 0
M  V30 36 H 0.127944 2.986628 3.047805 0
M  V30 37 H 0.734086 1.022810 4.276482 0
M  V30 38 H 2.059741 1.106578 3.085551 0
M  V30 END ATOM
M  V30 BEGIN BOND
M  V30 1 2 1 2
M  V30 2 1 2 3
M  V30 3 1 3 4
M  V30 4 2 4 5
M  V30 5 1 5 6
M  V30 6 2 6 7
M  V30 7 1 7 8
M  V30 8 1 7 9
M  V30 9 2 9 10
M  V30 10 1 2 11
M  V30 11 1 11 12
M  V30 12 1 12 13
M  V30 13 1 13 14
M  V30 14 1 14 15
M  V30 15 2 15 16
M  V30 16 1 16 17
M  V30 17 2 17 18
M  V30 18 1 18 19
M  V30 19 2 19 20
M  V30 20 1 14 21
M  V30 21 1 21 22
M  V30 22 1 10 4
M  V30 23 1 22 11
M  V30 24 1 20 15
M  V30 25 1 3 23
M  V30 26 1 5 24
M  V30 27 1 6 25
M  V30 28 1 9 26
M  V30 29 1 10 27
M  V30 30 1 12 28
M  V30 31 1 12 29
M  V30 32 1 13 30
M  V30 33 1 13 31
M  V30 34 1 17 32
M  V30 35 1 18 33
M  V30 36 1 19 34
M  V30 37 1 21 35
M  V30 38 1 21 36
M  V30 39 1 22 37
M  V30 40 1 22 38
M  V30 END BOND
M  V30 END CTAB
M  END
>  <Dataset>  (519) 
ChEMBL_Kinases

>  <Ligand_Instance>  (519) 
nan

>  <PDB_ID>  (519) 
nan

>  <Standardized_SMILES>  (519) 
O=C(Nc1ccc(Cl)cc1)N1CCN(c2ncccn2)CC1

>  <Name>  (519) 
nan

>  <Pocket>  (519) 
nan

>  <ATP_Site>  (519) 
nan

>  <Peripheral>  (519) 
nan

>  <Num_H_Atoms_ProtBoundConf>  (519) 
nan

>  <Num_Resolved_Atoms>  (519) 
nan

>  <Num_Not_Resolved_Atoms>  (519) 
nan

$$$$
CHEMBL1460066
     RDKit          3D

  0  0  0  0  0  0  0  0  0  0999 V3000
M  V30 BEGIN CTAB
M  V30 COUNTS 51 51 0 0 0
M  V30 BEGIN ATOM
M  V30 1 C -1.618816 -3.107335 4.306999 0
M  V30 2 C -0.304308 -3.681424 3.859835 0
M  V30 3 C -0.092583 -5.017132 4.499174 0
M  V30 4 O 0.756010 -2.799608 3.999681 0
M  V30 5 C 1.325908 -2.439992 2.782646 0
M  V30 6 C 2.478760 -1.480888 2.938607 0
M  V30 7 C 3.034345 -1.145580 1.579428 0
M  V30 8 N 2.016007 -0.529591 0.750625 0
M  V30 9 C 2.420200 -0.162494 -0.570520 0
M  V30 10 O 3.642122 -0.443824 -0.811239 0
M  V30 11 C 1.450433 0.473455 -1.492891 0
M  V30 12 N 0.145695 0.642895 -0.882560 0
M  V30 13 C -0.495587 1.900460 -0.782230 0
M  V30 14 O 0.143666 2.881650 -1.262195 0
M  V30 15 C -1.809793 2.051978 -0.164217 0
M  V30 16 C -2.538379 1.010251 0.369769 0
M  V30 17 C -3.777637 1.164287 0.950615 0
M  V30 18 C -4.292471 2.461158 0.982327 0
M  V30 19 Cl -5.886532 2.611419 1.737607 0
M  V30 20 C -3.596985 3.532439 0.459530 0
M  V30 21 C -2.347538 3.337365 -0.119330 0
M  V30 22 C 1.222506 -0.367006 -2.733002 0
M  V30 23 C 0.219001 0.334985 -3.642075 0
M  V30 24 C 2.512395 -0.662587 -3.464149 0
M  V30 25 H -2.303682 -3.959644 4.509234 0
M  V30 26 H -1.545629 -2.513931 5.219220 0
M  V30 27 H -2.108895 -2.561434 3.458208 0
M  V30 28 H -0.407143 -3.863949 2.750261 0
M  V30 29 H 0.596970 -4.979138 5.371154 0
M  V30 30 H 0.327362 -5.773467 3.797017 0
M  V30 31 H -1.057682 -5.453114 4.853215 0
M  V30 32 H 0.599277 -2.033998 2.068547 0
M  V30 33 H 1.777749 -3.382680 2.361572 0
M  V30 34 H 3.257204 -1.882378 3.589480 0
M  V30 35 H 2.052114 -0.526685 3.364300 0
M  V30 36 H 3.386923 -2.088020 1.117046 0
M  V30 37 H 3.920643 -0.478519 1.675230 0
M  V30 38 H 1.031000 -0.333548 1.027628 0
M  V30 39 H 1.772798 1.469260 -1.820528 0
M  V30 40 H -0.291121 -0.220039 -0.521885 0
M  V30 41 H -2.126266 0.019979 0.336251 0
M  V30 42 H -4.315084 0.329163 1.355852 0
M  V30 43 H -4.063943 4.512483 0.521656 0
M  V30 44 H -1.850831 4.228588 -0.514142 0
M  V30 45 H 0.769020 -1.356151 -2.491547 0
M  V30 46 H 0.255339 -0.220581 -4.617041 0
M  V30 47 H 0.462608 1.389284 -3.825120 0
M  V30 48 H -0.814077 0.183229 -3.263582 0
M  V30 49 H 2.205738 -1.081652 -4.456938 0
M  V30 50 H 3.054889 0.300904 -3.576890 0
M  V30 51 H 3.056005 -1.415550 -2.855971 0
M  V30 END ATOM
M  V30 BEGIN BOND
M  V30 1 1 1 2
M  V30 2 1 2 3
M  V30 3 1 2 4
M  V30 4 1 4 5
M  V30 5 1 5 6
M  V30 6 1 6 7
M  V30 7 1 7 8
M  V30 8 1 8 9
M  V30 9 2 9 10
M  V30 10 1 9 11
M  V30 11 1 11 12
M  V30 12 1 12 13
M  V30 13 2 13 14
M  V30 14 1 13 15
M  V30 15 2 15 16
M  V30 16 1 16 17
M  V30 17 2 17 18
M  V30 18 1 18 19
M  V30 19 1 18 20
M  V30 20 2 20 21
M  V30 21 1 11 22
M  V30 22 1 22 23
M  V30 23 1 22 24
M  V30 24 1 21 15
M  V30 25 1 1 25
M  V30 26 1 1 26
M  V30 27 1 1 27
M  V30 28 1 2 28
M  V30 29 1 3 29
M  V30 30 1 3 30
M  V30 31 1 3 31
M  V30 32 1 5 32
M  V30 33 1 5 33
M  V30 34 1 6 34
M  V30 35 1 6 35
M  V30 36 1 7 36
M  V30 37 1 7 37
M  V30 38 1 8 38
M  V30 39 1 11 39
M  V30 40 1 12 40
M  V30 41 1 16 41
M  V30 42 1 17 42
M  V30 43 1 20 43
M  V30 44 1 21 44
M  V30 45 1 22 45
M  V30 46 1 23 46
M  V30 47 1 23 47
M  V30 48 1 23 48
M  V30 49 1 24 49
M  V30 50 1 24 50
M  V30 51 1 24 51
M  V30 END BOND
M  V30 END CTAB
M  END
>  <Dataset>  (520) 
ChEMBL_Kinases

>  <Ligand_Instance>  (520) 
nan

>  <PDB_ID>  (520) 
nan

>  <Standardized_SMILES>  (520) 
CC(C)OCCCNC(=O)C(NC(=O)c1ccc(Cl)cc1)C(C)C

>  <Name>  (520) 
nan

>  <Pocket>  (520) 
nan

>  <ATP_Site>  (520) 
nan

>  <Peripheral>  (520) 
nan

>  <Num_H_Atoms_ProtBoundConf>  (520) 
nan

>  <Num_Resolved_Atoms>  (520) 
nan

>  <Num_Not_Resolved_Atoms>  (520) 
nan

$$$$
CHEMBL1458713
     RDKit          3D

  0  0  0  0  0  0  0  0  0  0999 V3000
M  V30 BEGIN CTAB
M  V30 COUNTS 52 52 0 0 0
M  V30 BEGIN ATOM
M  V30 1 C -0.059241 2.193489 -4.196989 0
M  V30 2 C -0.613035 2.988510 -3.081352 0
M  V30 3 C -1.890430 3.670926 -3.612744 0
M  V30 4 C -0.839702 2.348480 -1.779479 0
M  V30 5 C -1.767067 1.209373 -1.651697 0 CFG=2
M  V30 6 N -1.805366 0.787206 -0.228252 0
M  V30 7 C -3.023889 0.774243 0.508654 0
M  V30 8 O -4.203106 1.084653 0.149542 0
M  V30 9 C -3.116146 0.365393 1.918604 0 CFG=2
M  V30 10 O -2.185152 1.155904 2.771660 0
M  V30 11 C -2.139214 -0.337069 2.664081 0 CFG=1
M  V30 12 C -2.563053 -0.914748 3.966920 0
M  V30 13 O -1.805924 -1.770133 4.528588 0
M  V30 14 O -3.756895 -0.538154 4.569427 0
M  V30 15 C -1.410738 0.009925 -2.447086 0
M  V30 16 O -1.209327 -0.485595 -3.618780 0
M  V30 17 N -1.143724 -1.220065 -1.730322 0
M  V30 18 C -0.798958 -2.367763 -2.548898 0
M  V30 19 C -0.543560 -3.589801 -1.683795 0
M  V30 20 C 0.593876 -3.354051 -0.717002 0
M  V30 21 C 1.885250 -3.036211 -1.438902 0
M  V30 22 N 2.908245 -2.828071 -0.428084 0
M  V30 23 C 3.881573 -1.994234 -0.691008 0
M  V30 24 N 4.826601 -1.864811 0.363830 0
M  V30 25 N 4.093768 -1.225349 -1.879146 0
M  V30 26 H -0.813249 1.833005 -4.926222 0
M  V30 27 H 0.656255 1.456172 -3.837236 0
M  V30 28 H 0.573856 2.897384 -4.833582 0
M  V30 29 H 0.079542 3.875057 -2.915813 0
M  V30 30 H -1.635686 4.440772 -4.363761 0
M  V30 31 H -2.387878 4.192495 -2.768888 0
M  V30 32 H -2.555128 2.902464 -4.014387 0
M  V30 33 H -1.223357 3.154667 -1.076427 0
M  V30 34 H 0.137257 2.058178 -1.298516 0
M  V30 35 H -2.829644 1.453967 -1.860786 0
M  V30 36 H -0.962802 0.481050 0.308217 0
M  V30 37 H -4.167814 0.429516 2.304261 0
M  V30 38 H -1.185762 -0.692570 2.266506 0
M  V30 39 H -4.070393 -0.945417 5.457382 0
M  V30 40 H -1.179791 -1.345398 -0.673039 0
M  V30 41 H -1.626553 -2.655844 -3.248373 0
M  V30 42 H 0.114113 -2.215225 -3.156856 0
M  V30 43 H -1.432248 -3.933584 -1.134819 0
M  V30 44 H -0.235531 -4.427557 -2.341471 0
M  V30 45 H 0.399871 -2.518563 -0.023744 0
M  V30 46 H 0.731946 -4.277186 -0.122204 0
M  V30 47 H 2.154777 -3.827982 -2.152092 0
M  V30 48 H 1.733335 -2.042352 -1.923628 0
M  V30 49 H 5.389042 -1.057269 0.741826 0
M  V30 50 H 5.501964 -1.874228 1.152528 0
M  V30 51 H 3.635377 -0.285727 -1.896721 0
M  V30 52 H 3.761404 -0.270183 -2.164041 0
M  V30 END ATOM
M  V30 BEGIN BOND
M  V30 1 1 1 2
M  V30 2 1 2 3
M  V30 3 1 2 4
M  V30 4 1 4 5
M  V30 5 1 5 6
M  V30 6 1 6 7
M  V30 7 2 7 8
M  V30 8 1 7 9
M  V30 9 1 9 10
M  V30 10 1 10 11
M  V30 11 1 11 12
M  V30 12 2 12 13
M  V30 13 1 12 14
M  V30 14 1 5 15
M  V30 15 2 15 16
M  V30 16 1 15 17
M  V30 17 1 17 18
M  V30 18 1 18 19
M  V30 19 1 19 20
M  V30 20 1 20 21
M  V30 21 1 21 22
M  V30 22 2 22 23 CFG=2
M  V30 23 1 23 24
M  V30 24 1 23 25
M  V30 25 1 11 9
M  V30 26 1 1 26
M  V30 27 1 1 27
M  V30 28 1 1 28
M  V30 29 1 2 29
M  V30 30 1 3 30
M  V30 31 1 3 31
M  V30 32 1 3 32
M  V30 33 1 4 33
M  V30 34 1 4 34
M  V30 35 1 5 35 CFG=3
M  V30 36 1 6 36
M  V30 37 1 9 37 CFG=1
M  V30 38 1 11 38 CFG=3
M  V30 39 1 14 39
M  V30 40 1 17 40
M  V30 41 1 18 41
M  V30 42 1 18 42
M  V30 43 1 19 43
M  V30 44 1 19 44
M  V30 45 1 20 45
M  V30 46 1 20 46
M  V30 47 1 21 47
M  V30 48 1 21 48
M  V30 49 1 24 49
M  V30 50 1 24 50
M  V30 51 1 25 51
M  V30 52 1 25 52
M  V30 END BOND
M  V30 END CTAB
M  END
>  <Dataset>  (521) 
ChEMBL_Kinases

>  <Ligand_Instance>  (521) 
nan

>  <PDB_ID>  (521) 
nan

>  <Standardized_SMILES>  (521) 
CC(C)C[C@H](NC(=O)[C@@H]1O[C@H]1C(=O)O)C(=O)NCCCCN=C(N)N

>  <Name>  (521) 
nan

>  <Pocket>  (521) 
nan

>  <ATP_Site>  (521) 
nan

>  <Peripheral>  (521) 
nan

>  <Num_H_Atoms_ProtBoundConf>  (521) 
nan

>  <Num_Resolved_Atoms>  (521) 
nan

>  <Num_Not_Resolved_Atoms>  (521) 
nan

$$$$
CHEMBL1458768
     RDKit          3D

  0  0  0  0  0  0  0  0  0  0999 V3000
M  V30 BEGIN CTAB
M  V30 COUNTS 34 34 0 0 0
M  V30 BEGIN ATOM
M  V30 1 C -1.485969 -2.424372 2.879275 0
M  V30 2 N -0.051437 -2.536440 2.663183 0
M  V30 3 C 0.879594 -2.875635 3.717942 0
M  V30 4 C 0.498132 -2.314563 1.392981 0
M  V30 5 O 1.725016 -2.391420 1.122710 0
M  V30 6 N -0.320204 -1.974274 0.277445 0
M  V30 7 C -0.185496 -1.682757 -1.094520 0
M  V30 8 N -0.765235 -0.380538 -1.346718 0
M  V30 9 C -0.363703 0.888391 -0.858412 0
M  V30 10 C -1.007599 2.093269 -1.148644 0
M  V30 11 C -0.563364 3.291082 -0.649014 0
M  V30 12 C 0.539056 3.388212 0.166598 0
M  V30 13 C 1.216197 2.232626 0.488126 0
M  V30 14 N 2.352344 2.297875 1.323541 0 CHG=1 VAL=4
M  V30 15 O 2.748429 3.390353 1.772693 0
M  V30 16 O 3.065466 1.186498 1.677813 0 CHG=-1 VAL=1
M  V30 17 C 0.748333 1.043958 -0.027435 0
M  V30 18 C -0.818741 -2.637576 -2.054797 0
M  V30 19 Cl -2.557182 -2.803361 -1.859593 0
M  V30 20 Cl 0.047243 -4.173994 -2.192857 0
M  V30 21 Cl -0.593796 -1.859824 -3.666582 0
M  V30 22 H -1.861865 -1.415399 2.647554 0
M  V30 23 H -1.977709 -3.131658 2.188440 0
M  V30 24 H -1.764305 -2.709529 3.896788 0
M  V30 25 H 0.475924 -2.667059 4.720074 0
M  V30 26 H 1.135373 -3.946211 3.634139 0
M  V30 27 H 1.818051 -2.280438 3.560316 0
M  V30 28 H -1.360750 -1.912492 0.505050 0
M  V30 29 H 0.911972 -1.695123 -1.346871 0
M  V30 30 H -1.609076 -0.292280 -1.973290 0
M  V30 31 H -1.879747 2.036488 -1.790932 0
M  V30 32 H -1.136405 4.163568 -0.936766 0
M  V30 33 H 0.805548 4.363528 0.504297 0
M  V30 34 H 1.334300 0.185612 0.265708 0
M  V30 END ATOM
M  V30 BEGIN BOND
M  V30 1 1 1 2
M  V30 2 1 2 3
M  V30 3 1 2 4
M  V30 4 2 4 5
M  V30 5 1 4 6
M  V30 6 1 6 7
M  V30 7 1 7 8
M  V30 8 1 8 9
M  V30 9 2 9 10
M  V30 10 1 10 11
M  V30 11 2 11 12
M  V30 12 1 12 13
M  V30 13 1 13 14
M  V30 14 2 14 15
M  V30 15 1 14 16
M  V30 16 2 13 17
M  V30 17 1 7 18
M  V30 18 1 18 19
M  V30 19 1 18 20
M  V30 20 1 18 21
M  V30 21 1 17 9
M  V30 22 1 1 22
M  V30 23 1 1 23
M  V30 24 1 1 24
M  V30 25 1 3 25
M  V30 26 1 3 26
M  V30 27 1 3 27
M  V30 28 1 6 28
M  V30 29 1 7 29
M  V30 30 1 8 30
M  V30 31 1 10 31
M  V30 32 1 11 32
M  V30 33 1 12 33
M  V30 34 1 17 34
M  V30 END BOND
M  V30 END CTAB
M  END
>  <Dataset>  (522) 
ChEMBL_Kinases

>  <Ligand_Instance>  (522) 
nan

>  <PDB_ID>  (522) 
nan

>  <Standardized_SMILES>  (522) 
CN(C)C(=O)NC(Nc1cccc([N+](=O)[O-])c1)C(Cl)(Cl)Cl

>  <Name>  (522) 
nan

>  <Pocket>  (522) 
nan

>  <ATP_Site>  (522) 
nan

>  <Peripheral>  (522) 
nan

>  <Num_H_Atoms_ProtBoundConf>  (522) 
nan

>  <Num_Resolved_Atoms>  (522) 
nan

>  <Num_Not_Resolved_Atoms>  (522) 
nan

$$$$
CHEMBL1458770
     RDKit          3D

  0  0  0  0  0  0  0  0  0  0999 V3000
M  V30 BEGIN CTAB
M  V30 COUNTS 62 65 0 0 0
M  V30 BEGIN ATOM
M  V30 1 C 2.206753 -0.244221 -1.470773 0
M  V30 2 C 1.309129 -0.726756 -0.321613 0
M  V30 3 O 0.747131 0.315473 0.345635 0
M  V30 4 C -0.084097 0.331146 1.390226 0
M  V30 5 O 0.231782 -0.819720 1.034348 0
M  V30 6 C -0.986794 0.319433 2.525764 0
M  V30 7 C -0.366256 0.963899 3.711817 0
M  V30 8 C 0.006678 2.399266 3.640215 0
M  V30 9 O 0.831585 2.854167 2.754218 0
M  V30 10 C 1.648503 3.304715 1.875832 0
M  V30 11 C 2.824016 3.820015 2.443580 0
M  V30 12 C 3.862567 4.369742 1.676078 0
M  V30 13 C 3.671118 4.380912 0.310558 0
M  V30 14 C 2.541309 3.894467 -0.350265 0
M  V30 15 C 1.600232 3.384429 0.506947 0
M  V30 16 C -2.333879 0.974023 2.187878 0
M  V30 17 C -3.043906 0.212524 1.107283 0
M  V30 18 N -2.404209 -0.991585 0.724665 0
M  V30 19 C -3.135798 -1.673125 -0.308657 0
M  V30 20 C -2.536795 -2.937607 -0.756965 0
M  V30 21 C -2.869968 -4.141190 -0.141242 0
M  V30 22 C -2.302954 -5.326189 -0.568151 0
M  V30 23 C -1.394140 -5.404516 -1.601878 0
M  V30 24 C -1.064325 -4.203034 -2.213490 0
M  V30 25 C -1.627449 -2.999613 -1.794889 0
M  V30 26 O -0.149287 -4.286003 -3.253697 0
M  V30 27 C 0.878974 -5.258153 -3.301189 0
M  V30 28 C 0.577386 -6.482531 -2.502691 0
M  V30 29 O -0.792825 -6.542897 -2.076548 0
M  V30 30 C -1.909189 -1.817877 1.753273 0
M  V30 31 C -1.344625 -1.092442 2.922675 0
M  V30 32 H 1.620593 0.226078 -2.263533 0
M  V30 33 H 2.646573 -1.178492 -1.875291 0
M  V30 34 H 3.046890 0.349392 -1.094601 0
M  V30 35 H 2.011681 -1.375270 0.282292 0
M  V30 36 H 0.620020 -1.453589 -0.834903 0
M  V30 37 H -0.954660 0.796773 4.654358 0
M  V30 38 H 0.586419 0.383762 3.913154 0
M  V30 39 H 0.386949 2.710383 4.701179 0
M  V30 40 H -0.975840 3.028067 3.655378 0
M  V30 41 H 3.056126 3.850230 3.507531 0
M  V30 42 H 4.769963 4.769843 2.077436 0
M  V30 43 H 4.457615 4.798843 -0.301785 0
M  V30 44 H 2.413079 3.912641 -1.407619 0
M  V30 45 H 0.686820 2.997561 0.058115 0
M  V30 46 H -2.943451 0.900710 3.110459 0
M  V30 47 H -2.229074 2.050947 1.953107 0
M  V30 48 H -3.021792 0.885862 0.199957 0
M  V30 49 H -4.116472 0.031974 1.302620 0
M  V30 50 H -3.221203 -0.980386 -1.168098 0
M  V30 51 H -4.165978 -1.876254 0.040924 0
M  V30 52 H -3.572067 -4.130779 0.667042 0
M  V30 53 H -2.567964 -6.263218 -0.082751 0
M  V30 54 H -1.339733 -2.069078 -2.306236 0
M  V30 55 H 1.786876 -4.776155 -2.915527 0
M  V30 56 H 1.051854 -5.490879 -4.389512 0
M  V30 57 H 0.814302 -7.369181 -3.119811 0
M  V30 58 H 1.185595 -6.469518 -1.579708 0
M  V30 59 H -1.196711 -2.600948 1.417642 0
M  V30 60 H -2.793929 -2.411199 2.145883 0
M  V30 61 H -0.397600 -1.545808 3.290238 0
M  V30 62 H -2.036731 -1.101306 3.796823 0
M  V30 END ATOM
M  V30 BEGIN BOND
M  V30 1 1 1 2
M  V30 2 1 2 3
M  V30 3 1 3 4
M  V30 4 2 4 5
M  V30 5 1 4 6
M  V30 6 1 6 7
M  V30 7 1 7 8
M  V30 8 1 8 9
M  V30 9 1 9 10
M  V30 10 2 10 11
M  V30 11 1 11 12
M  V30 12 2 12 13
M  V30 13 1 13 14
M  V30 14 2 14 15
M  V30 15 1 6 16
M  V30 16 1 16 17
M  V30 17 1 17 18
M  V30 18 1 18 19
M  V30 19 1 19 20
M  V30 20 2 20 21
M  V30 21 1 21 22
M  V30 22 2 22 23
M  V30 23 1 23 24
M  V30 24 2 24 25
M  V30 25 1 24 26
M  V30 26 1 26 27
M  V30 27 1 27 28
M  V30 28 1 28 29
M  V30 29 1 18 30
M  V30 30 1 30 31
M  V30 31 1 31 6
M  V30 32 1 15 10
M  V30 33 1 25 20
M  V30 34 1 29 23
M  V30 35 1 1 32
M  V30 36 1 1 33
M  V30 37 1 1 34
M  V30 38 1 2 35
M  V30 39 1 2 36
M  V30 40 1 7 37
M  V30 41 1 7 38
M  V30 42 1 8 39
M  V30 43 1 8 40
M  V30 44 1 11 41
M  V30 45 1 12 42
M  V30 46 1 13 43
M  V30 47 1 14 44
M  V30 48 1 15 45
M  V30 49 1 16 46
M  V30 50 1 16 47
M  V30 51 1 17 48
M  V30 52 1 17 49
M  V30 53 1 19 50
M  V30 54 1 19 51
M  V30 55 1 21 52
M  V30 56 1 22 53
M  V30 57 1 25 54
M  V30 58 1 27 55
M  V30 59 1 27 56
M  V30 60 1 28 57
M  V30 61 1 28 58
M  V30 62 1 30 59
M  V30 63 1 30 60
M  V30 64 1 31 61
M  V30 65 1 31 62
M  V30 END BOND
M  V30 END CTAB
M  END
>  <Dataset>  (523) 
ChEMBL_Kinases

>  <Ligand_Instance>  (523) 
nan

>  <PDB_ID>  (523) 
nan

>  <Standardized_SMILES>  (523) 
CCOC(=O)C1(CCOc2ccccc2)CCN(Cc2ccc3c(c2)OCCO3)CC1

>  <Name>  (523) 
nan

>  <Pocket>  (523) 
nan

>  <ATP_Site>  (523) 
nan

>  <Peripheral>  (523) 
nan

>  <Num_H_Atoms_ProtBoundConf>  (523) 
nan

>  <Num_Resolved_Atoms>  (523) 
nan

>  <Num_Not_Resolved_Atoms>  (523) 
nan

$$$$
CHEMBL1458853
     RDKit          3D

  0  0  0  0  0  0  0  0  0  0999 V3000
M  V30 BEGIN CTAB
M  V30 COUNTS 49 50 0 0 0
M  V30 BEGIN ATOM
M  V30 1 C -0.275381 -2.353838 0.648092 0
M  V30 2 N 0.817636 -1.525918 0.117500 0
M  V30 3 C 1.730258 -2.302725 -0.702414 0
M  V30 4 C 1.217714 -2.281869 -2.092710 0
M  V30 5 C 1.496302 -1.397480 -3.089020 0
M  V30 6 C 0.946803 -1.491496 -4.349742 0
M  V30 7 C 0.072139 -2.517093 -4.644573 0
M  V30 8 C -0.229756 -3.435603 -3.643130 0
M  V30 9 C 0.333840 -3.323079 -2.381475 0
M  V30 10 C 1.126757 -0.128243 0.260278 0
M  V30 11 O 2.163488 0.379544 -0.295456 0
M  V30 12 C 0.389549 0.922446 1.006288 0
M  V30 13 N -0.790025 0.515357 1.651679 0
M  V30 14 C -1.015839 0.829620 3.010199 0
M  V30 15 C -0.157137 1.869125 3.646222 0
M  V30 16 C 1.087053 1.411586 4.295919 0
M  V30 17 C 1.394504 -0.037235 4.294998 0
M  V30 18 C 0.219751 -0.967041 4.295886 0
M  V30 19 C -1.092770 -0.354004 3.948208 0
M  V30 20 S -2.160365 0.842900 0.650537 0
M  V30 21 C -2.143633 -0.005018 -0.880893 0
M  V30 22 O -3.364329 0.344971 1.437348 0
M  V30 23 O -2.352842 2.319501 0.459577 0
M  V30 24 H 0.151033 -3.302634 1.009122 0
M  V30 25 H -0.806964 -1.848709 1.481144 0
M  V30 26 H -0.957415 -2.577418 -0.185026 0
M  V30 27 H 1.847395 -3.342582 -0.333256 0
M  V30 28 H 2.752368 -1.818103 -0.699379 0
M  V30 29 H 2.171922 -0.617324 -2.842708 0
M  V30 30 H 1.222365 -0.748458 -5.077553 0
M  V30 31 H -0.335815 -2.559228 -5.634534 0
M  V30 32 H -0.921119 -4.194549 -3.977345 0
M  V30 33 H -0.025654 -4.129270 -1.753702 0
M  V30 34 H 1.124033 1.455461 1.639967 0
M  V30 35 H 0.136812 1.700410 0.222533 0
M  V30 36 H -2.069786 1.214000 3.018427 0
M  V30 37 H -0.768289 2.428481 4.390666 0
M  V30 38 H 0.029968 2.659581 2.866356 0
M  V30 39 H 1.145541 1.757842 5.352768 0
M  V30 40 H 1.949651 1.954005 3.835717 0
M  V30 41 H 2.012905 -0.318360 3.413428 0
M  V30 42 H 2.028951 -0.307501 5.168762 0
M  V30 43 H 0.362856 -1.842994 3.608845 0
M  V30 44 H 0.086447 -1.463278 5.287656 0
M  V30 45 H -1.527047 0.064274 4.902042 0
M  V30 46 H -1.791768 -1.137408 3.637500 0
M  V30 47 H -1.171738 -0.041558 -1.373703 0
M  V30 48 H -2.811146 0.579073 -1.575052 0
M  V30 49 H -2.656323 -0.985612 -0.780396 0
M  V30 END ATOM
M  V30 BEGIN BOND
M  V30 1 1 1 2
M  V30 2 1 2 3
M  V30 3 1 3 4
M  V30 4 2 4 5
M  V30 5 1 5 6
M  V30 6 2 6 7
M  V30 7 1 7 8
M  V30 8 2 8 9
M  V30 9 1 2 10
M  V30 10 2 10 11
M  V30 11 1 10 12
M  V30 12 1 12 13
M  V30 13 1 13 14
M  V30 14 1 14 15
M  V30 15 1 15 16
M  V30 16 1 16 17
M  V30 17 1 17 18
M  V30 18 1 18 19
M  V30 19 1 13 20
M  V30 20 1 20 21
M  V30 21 2 20 22
M  V30 22 2 20 23
M  V30 23 1 9 4
M  V30 24 1 19 14
M  V30 25 1 1 24
M  V30 26 1 1 25
M  V30 27 1 1 26
M  V30 28 1 3 27
M  V30 29 1 3 28
M  V30 30 1 5 29
M  V30 31 1 6 30
M  V30 32 1 7 31
M  V30 33 1 8 32
M  V30 34 1 9 33
M  V30 35 1 12 34
M  V30 36 1 12 35
M  V30 37 1 14 36
M  V30 38 1 15 37
M  V30 39 1 15 38
M  V30 40 1 16 39
M  V30 41 1 16 40
M  V30 42 1 17 41
M  V30 43 1 17 42
M  V30 44 1 18 43
M  V30 45 1 18 44
M  V30 46 1 19 45
M  V30 47 1 19 46
M  V30 48 1 21 47
M  V30 49 1 21 48
M  V30 50 1 21 49
M  V30 END BOND
M  V30 END CTAB
M  END
>  <Dataset>  (524) 
ChEMBL_Kinases

>  <Ligand_Instance>  (524) 
nan

>  <PDB_ID>  (524) 
nan

>  <Standardized_SMILES>  (524) 
CN(Cc1ccccc1)C(=O)CN(C1CCCCC1)S(C)(=O)=O

>  <Name>  (524) 
nan

>  <Pocket>  (524) 
nan

>  <ATP_Site>  (524) 
nan

>  <Peripheral>  (524) 
nan

>  <Num_H_Atoms_ProtBoundConf>  (524) 
nan

>  <Num_Resolved_Atoms>  (524) 
nan

>  <Num_Not_Resolved_Atoms>  (524) 
nan

$$$$
CHEMBL1458928
     RDKit          3D

  0  0  0  0  0  0  0  0  0  0999 V3000
M  V30 BEGIN CTAB
M  V30 COUNTS 45 47 0 0 0
M  V30 BEGIN ATOM
M  V30 1 C 2.770258 -6.394337 2.461886 0
M  V30 2 O 3.577240 -5.236454 2.356396 0
M  V30 3 C 3.234713 -4.181891 1.513879 0
M  V30 4 C 4.058210 -3.079750 1.451822 0
M  V30 5 C 3.784312 -1.998914 0.641767 0
M  V30 6 C 2.652355 -2.004193 -0.139370 0
M  V30 7 N 2.203406 -0.978321 -1.039140 0
M  V30 8 C 1.364511 -0.030641 -0.426536 0
M  V30 9 O 1.180463 -0.287558 0.807956 0
M  V30 10 C 0.783684 1.107064 -1.142083 0
M  V30 11 C 1.769514 2.043701 -1.761543 0
M  V30 12 C 1.306649 3.455414 -1.390804 0
M  V30 13 C 0.444595 3.265126 -0.163339 0
M  V30 14 N -0.034360 1.900710 -0.236904 0
M  V30 15 C -1.141082 1.324173 0.443147 0
M  V30 16 O -1.566640 0.139183 0.386827 0
M  V30 17 O -1.946451 2.069502 1.322339 0
M  V30 18 C -3.028451 1.437528 1.964638 0
M  V30 19 C -4.240154 1.477259 1.295188 0
M  V30 20 C -5.369412 0.879926 1.849902 0
M  V30 21 C -5.261391 0.247717 3.077618 0
M  V30 22 C -4.054889 0.206087 3.748038 0
M  V30 23 C -2.936299 0.802718 3.189384 0
M  V30 24 C 1.813051 -3.112876 -0.084510 0
M  V30 25 C 2.092295 -4.206654 0.736676 0
M  V30 26 H 1.705060 -6.088932 2.496944 0
M  V30 27 H 2.892406 -7.098278 1.633215 0
M  V30 28 H 3.023502 -6.931977 3.410018 0
M  V30 29 H 4.969985 -3.028902 2.054284 0
M  V30 30 H 4.380724 -1.102625 0.540536 0
M  V30 31 H 2.453708 -0.908765 -2.055758 0
M  V30 32 H 0.080753 0.801486 -1.965177 0
M  V30 33 H 2.808308 1.856025 -1.436706 0
M  V30 34 H 1.772888 2.017192 -2.877870 0
M  V30 35 H 2.235456 4.032577 -1.154463 0
M  V30 36 H 0.748781 3.938596 -2.195163 0
M  V30 37 H -0.404959 3.977215 -0.104677 0
M  V30 38 H 1.065801 3.451776 0.737120 0
M  V30 39 H -4.377130 1.965594 0.320567 0
M  V30 40 H -6.358135 0.853672 1.412650 0
M  V30 41 H -6.083988 -0.253097 3.603740 0
M  V30 42 H -3.892167 -0.267753 4.708392 0
M  V30 43 H -1.968744 0.814262 3.643555 0
M  V30 44 H 0.896843 -3.190021 -0.674949 0
M  V30 45 H 1.423613 -5.055569 0.760651 0
M  V30 END ATOM
M  V30 BEGIN BOND
M  V30 1 1 1 2
M  V30 2 1 2 3
M  V30 3 2 3 4
M  V30 4 1 4 5
M  V30 5 2 5 6
M  V30 6 1 6 7
M  V30 7 1 7 8
M  V30 8 2 8 9
M  V30 9 1 8 10
M  V30 10 1 10 11
M  V30 11 1 11 12
M  V30 12 1 12 13
M  V30 13 1 13 14
M  V30 14 1 14 15
M  V30 15 2 15 16
M  V30 16 1 15 17
M  V30 17 1 17 18
M  V30 18 2 18 19
M  V30 19 1 19 20
M  V30 20 2 20 21
M  V30 21 1 21 22
M  V30 22 2 22 23
M  V30 23 1 6 24
M  V30 24 2 24 25
M  V30 25 1 25 3
M  V30 26 1 14 10
M  V30 27 1 23 18
M  V30 28 1 1 26
M  V30 29 1 1 27
M  V30 30 1 1 28
M  V30 31 1 4 29
M  V30 32 1 5 30
M  V30 33 1 7 31
M  V30 34 1 10 32
M  V30 35 1 11 33
M  V30 36 1 11 34
M  V30 37 1 12 35
M  V30 38 1 12 36
M  V30 39 1 13 37
M  V30 40 1 13 38
M  V30 41 1 19 39
M  V30 42 1 20 40
M  V30 43 1 21 41
M  V30 44 1 22 42
M  V30 45 1 23 43
M  V30 46 1 24 44
M  V30 47 1 25 45
M  V30 END BOND
M  V30 END CTAB
M  END
>  <Dataset>  (525) 
ChEMBL_Kinases

>  <Ligand_Instance>  (525) 
nan

>  <PDB_ID>  (525) 
nan

>  <Standardized_SMILES>  (525) 
COc1ccc(NC(=O)C2CCCN2C(=O)Oc2ccccc2)cc1

>  <Name>  (525) 
nan

>  <Pocket>  (525) 
nan

>  <ATP_Site>  (525) 
nan

>  <Peripheral>  (525) 
nan

>  <Num_H_Atoms_ProtBoundConf>  (525) 
nan

>  <Num_Resolved_Atoms>  (525) 
nan

>  <Num_Not_Resolved_Atoms>  (525) 
nan

$$$$
CHEMBL1459102
     RDKit          3D

  0  0  0  0  0  0  0  0  0  0999 V3000
M  V30 BEGIN CTAB
M  V30 COUNTS 37 39 0 0 0
M  V30 BEGIN ATOM
M  V30 1 C -1.977103 -4.441141 -0.073952 0
M  V30 2 C -0.985490 -4.893269 0.973017 0
M  V30 3 O 0.328069 -4.455925 0.700428 0
M  V30 4 C 0.727911 -3.143491 0.609855 0
M  V30 5 C 2.010356 -2.695669 0.341023 0
M  V30 6 C 2.316023 -1.354267 0.274494 0
M  V30 7 C 1.319485 -0.428154 0.480681 0
M  V30 8 C 0.016480 -0.841449 0.752931 0
M  V30 9 C -0.266689 -2.178606 0.814821 0
M  V30 10 C -0.871055 0.295146 0.939843 0
M  V30 11 C -2.283201 -0.063615 1.245793 0
M  V30 12 C -0.536278 1.564494 0.871033 0
M  V30 13 C 0.857456 2.042723 0.579254 0
M  V30 14 C 0.891830 2.867772 -0.678076 0
M  V30 15 C 1.274401 2.896792 1.756337 0
M  V30 16 N 1.755026 0.917797 0.390904 0
M  V30 17 C 3.158326 0.792683 0.100541 0
M  V30 18 O 3.906204 1.786524 -0.052829 0
M  V30 19 C 3.565895 -0.603975 0.015865 0
M  V30 20 O 4.665762 -1.141963 -0.209850 0
M  V30 21 H -2.886299 -3.961368 0.379913 0
M  V30 22 H -2.410309 -5.331969 -0.610224 0
M  V30 23 H -1.574177 -3.784461 -0.842005 0
M  V30 24 H -1.349586 -4.462562 1.936717 0
M  V30 25 H -1.052541 -5.991061 1.055112 0
M  V30 26 H 2.758102 -3.435076 0.188663 0
M  V30 27 H -1.290779 -2.339219 1.031754 0
M  V30 28 H -2.291336 -0.882044 2.023681 0
M  V30 29 H -2.738752 0.800512 1.791259 0
M  V30 30 H -2.904330 -0.266522 0.377546 0
M  V30 31 H -1.307603 2.303049 1.034935 0
M  V30 32 H 1.710549 3.614992 -0.542844 0
M  V30 33 H -0.091410 3.360297 -0.859161 0
M  V30 34 H 1.052106 2.196899 -1.536686 0
M  V30 35 H 1.784287 2.279343 2.530921 0
M  V30 36 H 0.354928 3.298310 2.221529 0
M  V30 37 H 1.961390 3.722051 1.429747 0
M  V30 END ATOM
M  V30 BEGIN BOND
M  V30 1 1 1 2
M  V30 2 1 2 3
M  V30 3 1 3 4
M  V30 4 2 4 5
M  V30 5 1 5 6
M  V30 6 2 6 7
M  V30 7 1 7 8
M  V30 8 2 8 9
M  V30 9 1 8 10
M  V30 10 1 10 11
M  V30 11 2 10 12
M  V30 12 1 12 13
M  V30 13 1 13 14
M  V30 14 1 13 15
M  V30 15 1 13 16
M  V30 16 1 16 17
M  V30 17 2 17 18
M  V30 18 1 17 19
M  V30 19 2 19 20
M  V30 20 1 9 4
M  V30 21 1 19 6
M  V30 22 1 16 7
M  V30 23 1 1 21
M  V30 24 1 1 22
M  V30 25 1 1 23
M  V30 26 1 2 24
M  V30 27 1 2 25
M  V30 28 1 5 26
M  V30 29 1 9 27
M  V30 30 1 11 28
M  V30 31 1 11 29
M  V30 32 1 11 30
M  V30 33 1 12 31
M  V30 34 1 14 32
M  V30 35 1 14 33
M  V30 36 1 14 34
M  V30 37 1 15 35
M  V30 38 1 15 36
M  V30 39 1 15 37
M  V30 END BOND
M  V30 END CTAB
M  END
>  <Dataset>  (526) 
ChEMBL_Kinases

>  <Ligand_Instance>  (526) 
nan

>  <PDB_ID>  (526) 
nan

>  <Standardized_SMILES>  (526) 
CCOc1cc2c3c(c1)C(C)=CC(C)(C)N3C(=O)C2=O

>  <Name>  (526) 
nan

>  <Pocket>  (526) 
nan

>  <ATP_Site>  (526) 
nan

>  <Peripheral>  (526) 
nan

>  <Num_H_Atoms_ProtBoundConf>  (526) 
nan

>  <Num_Resolved_Atoms>  (526) 
nan

>  <Num_Not_Resolved_Atoms>  (526) 
nan

$$$$
CHEMBL1459176
     RDKit          3D

  0  0  0  0  0  0  0  0  0  0999 V3000
M  V30 BEGIN CTAB
M  V30 COUNTS 55 57 0 0 0
M  V30 BEGIN ATOM
M  V30 1 N 4.232495 -3.410677 4.916556 0
M  V30 2 S 4.617431 -3.965594 3.327239 0
M  V30 3 O 6.063894 -4.299927 3.279690 0
M  V30 4 O 3.788581 -5.191144 3.005836 0
M  V30 5 C 4.162736 -2.716986 2.178607 0
M  V30 6 C 5.058118 -1.738787 1.813454 0
M  V30 7 C 4.734903 -0.750491 0.919959 0
M  V30 8 C 3.475886 -0.714389 0.354487 0
M  V30 9 C 3.223823 0.397472 -0.604158 0
M  V30 10 C 2.681111 1.618614 0.128204 0
M  V30 11 N 1.443457 1.344431 0.804038 0
M  V30 12 C 0.314171 0.916194 0.056821 0
M  V30 13 O 0.269059 0.743207 -1.168917 0
M  V30 14 C -0.964106 0.632824 0.756550 0
M  V30 15 C -1.342756 1.791571 1.617547 0
M  V30 16 C -1.776958 2.947594 0.752689 0
M  V30 17 C -2.925799 2.502094 -0.122673 0
M  V30 18 C -2.664139 1.233467 -0.861574 0
M  V30 19 N -2.001786 0.207134 -0.126727 0
M  V30 20 S -3.028905 -0.984255 0.541010 0
M  V30 21 O -2.191457 -1.897557 1.391302 0
M  V30 22 O -4.034795 -0.287980 1.440122 0
M  V30 23 C -3.916118 -1.857677 -0.662519 0
M  V30 24 C -3.256960 -2.998439 -1.127837 0
M  V30 25 C -3.845516 -3.805164 -2.098815 0
M  V30 26 C -5.088605 -3.451723 -2.586907 0
M  V30 27 C -5.743797 -2.323821 -2.128942 0
M  V30 28 C -5.156099 -1.522696 -1.162751 0
M  V30 29 C 2.597934 -1.685466 0.721600 0
M  V30 30 C 2.897620 -2.684345 1.613145 0
M  V30 31 H 4.189163 -2.387510 4.971949 0
M  V30 32 H 3.390604 -3.878502 5.289227 0
M  V30 33 H 6.040539 -1.761454 2.250532 0
M  V30 34 H 5.488365 -0.005317 0.672280 0
M  V30 35 H 2.486214 0.045570 -1.371519 0
M  V30 36 H 4.143661 0.621371 -1.144404 0
M  V30 37 H 2.514079 2.400689 -0.656529 0
M  V30 38 H 3.459074 2.009350 0.789338 0
M  V30 39 H 1.435264 1.477739 1.845690 0
M  V30 40 H -0.759972 -0.229087 1.451383 0
M  V30 41 H -0.470164 2.098478 2.213555 0
M  V30 42 H -2.185567 1.474206 2.265264 0
M  V30 43 H -2.180634 3.729266 1.426251 0
M  V30 44 H -0.932856 3.305541 0.156866 0
M  V30 45 H -3.103573 3.315982 -0.858571 0
M  V30 46 H -3.819241 2.435141 0.507314 0
M  V30 47 H -2.071907 1.478148 -1.775600 0
M  V30 48 H -3.659833 0.828782 -1.167299 0
M  V30 49 H -2.278772 -3.336186 -0.789178 0
M  V30 50 H -3.331192 -4.697360 -2.463490 0
M  V30 51 H -5.499593 -4.117965 -3.343098 0
M  V30 52 H -6.707496 -2.064985 -2.518892 0
M  V30 53 H -5.602431 -0.638427 -0.762762 0
M  V30 54 H 1.621783 -1.656652 0.281646 0
M  V30 55 H 2.156146 -3.435236 1.870259 0
M  V30 END ATOM
M  V30 BEGIN BOND
M  V30 1 1 1 2
M  V30 2 2 2 3
M  V30 3 2 2 4
M  V30 4 1 2 5
M  V30 5 2 5 6
M  V30 6 1 6 7
M  V30 7 2 7 8
M  V30 8 1 8 9
M  V30 9 1 9 10
M  V30 10 1 10 11
M  V30 11 1 11 12
M  V30 12 2 12 13
M  V30 13 1 12 14
M  V30 14 1 14 15
M  V30 15 1 15 16
M  V30 16 1 16 17
M  V30 17 1 17 18
M  V30 18 1 18 19
M  V30 19 1 19 20
M  V30 20 2 20 21
M  V30 21 2 20 22
M  V30 22 1 20 23
M  V30 23 2 23 24
M  V30 24 1 24 25
M  V30 25 2 25 26
M  V30 26 1 26 27
M  V30 27 2 27 28
M  V30 28 1 8 29
M  V30 29 2 29 30
M  V30 30 1 30 5
M  V30 31 1 19 14
M  V30 32 1 28 23
M  V30 33 1 1 31
M  V30 34 1 1 32
M  V30 35 1 6 33
M  V30 36 1 7 34
M  V30 37 1 9 35
M  V30 38 1 9 36
M  V30 39 1 10 37
M  V30 40 1 10 38
M  V30 41 1 11 39
M  V30 42 1 14 40
M  V30 43 1 15 41
M  V30 44 1 15 42
M  V30 45 1 16 43
M  V30 46 1 16 44
M  V30 47 1 17 45
M  V30 48 1 17 46
M  V30 49 1 18 47
M  V30 50 1 18 48
M  V30 51 1 24 49
M  V30 52 1 25 50
M  V30 53 1 26 51
M  V30 54 1 27 52
M  V30 55 1 28 53
M  V30 56 1 29 54
M  V30 57 1 30 55
M  V30 END BOND
M  V30 END CTAB
M  END
>  <Dataset>  (527) 
ChEMBL_Kinases

>  <Ligand_Instance>  (527) 
nan

>  <PDB_ID>  (527) 
nan

>  <Standardized_SMILES>  (527) 
NS(=O)(=O)c1ccc(CCNC(=O)C2CCCCN2S(=O)(=O)c2ccccc2)cc1

>  <Name>  (527) 
nan

>  <Pocket>  (527) 
nan

>  <ATP_Site>  (527) 
nan

>  <Peripheral>  (527) 
nan

>  <Num_H_Atoms_ProtBoundConf>  (527) 
nan

>  <Num_Resolved_Atoms>  (527) 
nan

>  <Num_Not_Resolved_Atoms>  (527) 
nan

$$$$
CHEMBL1459182
     RDKit          3D

  0  0  0  0  0  0  0  0  0  0999 V3000
M  V30 BEGIN CTAB
M  V30 COUNTS 49 52 0 0 0
M  V30 BEGIN ATOM
M  V30 1 O 1.912254 -2.864083 1.248445 0
M  V30 2 C 1.485605 -1.769616 1.693656 0
M  V30 3 N 2.227176 -0.652376 1.209853 0
M  V30 4 C 3.336128 -0.706875 0.320653 0
M  V30 5 C 4.671499 -0.820804 0.652134 0
M  V30 6 C 5.633422 -0.860696 -0.335957 0
M  V30 7 C 5.284072 -0.787361 -1.688479 0
M  V30 8 C 3.930898 -0.672329 -2.012070 0
M  V30 9 C 3.614361 -0.601416 -3.367565 0
M  V30 10 C 2.274403 -0.486286 -3.723845 0
M  V30 11 C 1.273725 -0.442878 -2.751481 0
M  V30 12 C 1.670033 -0.518020 -1.451096 0
M  V30 13 C 2.977263 -0.633170 -1.021578 0
M  V30 14 N 0.387432 -1.598347 2.585440 0
M  V30 15 C -0.056894 -0.302449 3.064171 0
M  V30 16 C -1.519900 -0.249781 3.355233 0
M  V30 17 N -2.247926 -1.392093 2.860244 0
M  V30 18 C -2.499304 -1.366021 1.440021 0
M  V30 19 C -3.299264 -0.169289 1.073986 0
M  V30 20 C -4.696077 -0.243220 1.073418 0
M  V30 21 C -5.540850 0.793074 0.753829 0
M  V30 22 C -4.960073 2.013338 0.402801 0
M  V30 23 C -3.570063 2.130926 0.390353 0
M  V30 24 C -2.775727 1.053536 0.721254 0
M  V30 25 C -1.713963 -2.642457 3.317570 0
M  V30 26 C -0.268394 -2.833561 2.989400 0
M  V30 27 H 1.997933 0.321291 1.486084 0
M  V30 28 H 4.872428 -0.872889 1.715541 0
M  V30 29 H 6.625732 -0.949903 0.043400 0
M  V30 30 H 6.087407 -0.824314 -2.405664 0
M  V30 31 H 4.380759 -0.634090 -4.129089 0
M  V30 32 H 2.074400 -0.435086 -4.766882 0
M  V30 33 H 0.261416 -0.353779 -3.082963 0
M  V30 34 H 0.874685 -0.482234 -0.717981 0
M  V30 35 H 0.550609 -0.085087 3.982475 0
M  V30 36 H 0.158013 0.513020 2.343320 0
M  V30 37 H -1.644575 -0.269611 4.471845 0
M  V30 38 H -2.023564 0.683265 3.038697 0
M  V30 39 H -3.114718 -2.256757 1.215212 0
M  V30 40 H -1.605682 -1.410002 0.807439 0
M  V30 41 H -5.127403 -1.191208 1.346360 0
M  V30 42 H -6.613397 0.642393 0.781124 0
M  V30 43 H -5.652995 2.796957 0.160291 0
M  V30 44 H -3.156890 3.081683 0.116235 0
M  V30 45 H -1.712030 1.159048 0.707130 0
M  V30 46 H -2.353954 -3.439130 2.879427 0
M  V30 47 H -1.847552 -2.651565 4.422984 0
M  V30 48 H 0.253735 -3.240717 3.865113 0
M  V30 49 H -0.221296 -3.586479 2.165112 0
M  V30 END ATOM
M  V30 BEGIN BOND
M  V30 1 2 1 2
M  V30 2 1 2 3
M  V30 3 1 3 4
M  V30 4 2 4 5
M  V30 5 1 5 6
M  V30 6 2 6 7
M  V30 7 1 7 8
M  V30 8 2 8 9
M  V30 9 1 9 10
M  V30 10 2 10 11
M  V30 11 1 11 12
M  V30 12 2 12 13
M  V30 13 1 2 14
M  V30 14 1 14 15
M  V30 15 1 15 16
M  V30 16 1 16 17
M  V30 17 1 17 18
M  V30 18 1 18 19
M  V30 19 2 19 20
M  V30 20 1 20 21
M  V30 21 2 21 22
M  V30 22 1 22 23
M  V30 23 2 23 24
M  V30 24 1 17 25
M  V30 25 1 25 26
M  V30 26 1 13 4
M  V30 27 1 26 14
M  V30 28 1 13 8
M  V30 29 1 24 19
M  V30 30 1 3 27
M  V30 31 1 5 28
M  V30 32 1 6 29
M  V30 33 1 7 30
M  V30 34 1 9 31
M  V30 35 1 10 32
M  V30 36 1 11 33
M  V30 37 1 12 34
M  V30 38 1 15 35
M  V30 39 1 15 36
M  V30 40 1 16 37
M  V30 41 1 16 38
M  V30 42 1 18 39
M  V30 43 1 18 40
M  V30 44 1 20 41
M  V30 45 1 21 42
M  V30 46 1 22 43
M  V30 47 1 23 44
M  V30 48 1 24 45
M  V30 49 1 25 46
M  V30 50 1 25 47
M  V30 51 1 26 48
M  V30 52 1 26 49
M  V30 END BOND
M  V30 END CTAB
M  END
>  <Dataset>  (528) 
ChEMBL_Kinases

>  <Ligand_Instance>  (528) 
nan

>  <PDB_ID>  (528) 
nan

>  <Standardized_SMILES>  (528) 
O=C(Nc1cccc2ccccc12)N1CCN(Cc2ccccc2)CC1

>  <Name>  (528) 
nan

>  <Pocket>  (528) 
nan

>  <ATP_Site>  (528) 
nan

>  <Peripheral>  (528) 
nan

>  <Num_H_Atoms_ProtBoundConf>  (528) 
nan

>  <Num_Resolved_Atoms>  (528) 
nan

>  <Num_Not_Resolved_Atoms>  (528) 
nan

$$$$
CHEMBL1459923
     RDKit          3D

  0  0  0  0  0  0  0  0  0  0999 V3000
M  V30 BEGIN CTAB
M  V30 COUNTS 28 29 0 0 0
M  V30 BEGIN ATOM
M  V30 1 C -3.027328 -2.166614 3.661213 0
M  V30 2 O -2.416317 -1.110083 2.930852 0
M  V30 3 C -1.202439 -1.418776 2.301182 0
M  V30 4 O -0.752799 -2.577281 2.424135 0
M  V30 5 C -0.574478 -0.337547 1.552123 0
M  V30 6 O -0.906680 0.896700 1.332243 0
M  V30 7 C -0.014252 1.507022 0.583686 0
M  V30 8 C 0.053893 2.803991 0.099992 0
M  V30 9 C 1.131976 3.212079 -0.692004 0
M  V30 10 C 2.123651 2.292169 -0.978664 0
M  V30 11 Cl 3.473371 2.839425 -1.982632 0
M  V30 12 C 2.103579 0.988712 -0.521865 0
M  V30 13 C 1.009299 0.634649 0.261508 0
M  V30 14 C 0.640187 -0.543669 0.886955 0
M  V30 15 N 1.424953 -1.751308 0.823705 0
M  V30 16 C 1.106421 -2.628092 -0.276606 0
M  V30 17 C 1.847532 -3.881918 -0.429717 0
M  V30 18 O 0.163304 -2.065251 -0.932445 0
M  V30 19 H -2.935482 -3.129219 3.117693 0
M  V30 20 H -4.103531 -1.873222 3.761019 0
M  V30 21 H -2.622112 -2.278308 4.674607 0
M  V30 22 H -0.730810 3.483211 0.343448 0
M  V30 23 H 1.203827 4.230711 -1.082996 0
M  V30 24 H 2.883100 0.272962 -0.749714 0
M  V30 25 H 2.177811 -1.961117 1.544490 0
M  V30 26 H 1.564824 -4.672785 0.291670 0
M  V30 27 H 2.946514 -3.707228 -0.394913 0
M  V30 28 H 1.637590 -4.312198 -1.446356 0
M  V30 END ATOM
M  V30 BEGIN BOND
M  V30 1 1 1 2
M  V30 2 1 2 3
M  V30 3 2 3 4
M  V30 4 1 3 5
M  V30 5 1 5 6
M  V30 6 1 6 7
M  V30 7 2 7 8
M  V30 8 1 8 9
M  V30 9 2 9 10
M  V30 10 1 10 11
M  V30 11 1 10 12
M  V30 12 2 12 13
M  V30 13 1 13 14
M  V30 14 1 14 15
M  V30 15 1 15 16
M  V30 16 1 16 17
M  V30 17 2 16 18
M  V30 18 2 14 5
M  V30 19 1 13 7
M  V30 20 1 1 19
M  V30 21 1 1 20
M  V30 22 1 1 21
M  V30 23 1 8 22
M  V30 24 1 9 23
M  V30 25 1 12 24
M  V30 26 1 15 25
M  V30 27 1 17 26
M  V30 28 1 17 27
M  V30 29 1 17 28
M  V30 END BOND
M  V30 END CTAB
M  END
>  <Dataset>  (529) 
ChEMBL_Kinases

>  <Ligand_Instance>  (529) 
nan

>  <PDB_ID>  (529) 
nan

>  <Standardized_SMILES>  (529) 
COC(=O)c1oc2ccc(Cl)cc2c1NC(C)=O

>  <Name>  (529) 
nan

>  <Pocket>  (529) 
nan

>  <ATP_Site>  (529) 
nan

>  <Peripheral>  (529) 
nan

>  <Num_H_Atoms_ProtBoundConf>  (529) 
nan

>  <Num_Resolved_Atoms>  (529) 
nan

>  <Num_Not_Resolved_Atoms>  (529) 
nan

$$$$
CHEMBL1459215
     RDKit          3D

  0  0  0  0  0  0  0  0  0  0999 V3000
M  V30 BEGIN CTAB
M  V30 COUNTS 33 35 0 0 0
M  V30 BEGIN ATOM
M  V30 1 O 0.403746 -1.375642 3.520929 0
M  V30 2 C 0.306265 -1.143623 2.291021 0
M  V30 3 N 0.964690 -1.985379 1.379329 0
M  V30 4 C 1.769929 -3.121685 1.622306 0
M  V30 5 C 2.091326 -3.663529 2.842120 0
M  V30 6 C 2.881814 -4.775358 3.033770 0
M  V30 7 C 3.403559 -5.412777 1.934054 0
M  V30 8 C 3.103376 -4.898494 0.690452 0
M  V30 9 F 3.586550 -5.480728 -0.430561 0
M  V30 10 C 2.308165 -3.783475 0.541597 0
M  V30 11 C -0.503423 0.009972 1.906669 0
M  V30 12 C -1.164969 0.862819 2.732921 0
M  V30 13 C -1.756818 1.751532 1.873667 0
M  V30 14 C -1.465712 1.448998 0.585065 0
M  V30 15 C -1.776163 1.983130 -0.729812 0
M  V30 16 C -1.283074 1.388673 -1.870194 0
M  V30 17 C -1.556143 1.867175 -3.137311 0
M  V30 18 C -2.344104 2.975892 -3.334080 0
M  V30 19 C -2.851211 3.591968 -2.221271 0
M  V30 20 C -2.556866 3.085477 -0.973627 0
M  V30 21 Cl -3.269117 3.969289 0.353992 0
M  V30 22 O -0.704500 0.386283 0.669078 0
M  V30 23 H 0.799125 -1.678281 0.395904 0
M  V30 24 H 1.714773 -3.211066 3.732206 0
M  V30 25 H 3.095963 -5.150428 4.025102 0
M  V30 26 H 4.026251 -6.286959 2.064098 0
M  V30 27 H 2.101885 -3.417289 -0.475464 0
M  V30 28 H -1.209685 0.840120 3.810354 0
M  V30 29 H -2.367283 2.576440 2.154010 0
M  V30 30 H -0.651259 0.510034 -1.844432 0
M  V30 31 H -1.153779 1.377769 -4.012943 0
M  V30 32 H -2.541628 3.327567 -4.321193 0
M  V30 33 H -3.460706 4.449506 -2.372649 0
M  V30 END ATOM
M  V30 BEGIN BOND
M  V30 1 2 1 2
M  V30 2 1 2 3
M  V30 3 1 3 4
M  V30 4 2 4 5
M  V30 5 1 5 6
M  V30 6 2 6 7
M  V30 7 1 7 8
M  V30 8 1 8 9
M  V30 9 2 8 10
M  V30 10 1 2 11
M  V30 11 2 11 12
M  V30 12 1 12 13
M  V30 13 2 13 14
M  V30 14 1 14 15
M  V30 15 2 15 16
M  V30 16 1 16 17
M  V30 17 2 17 18
M  V30 18 1 18 19
M  V30 19 2 19 20
M  V30 20 1 20 21
M  V30 21 1 14 22
M  V30 22 1 10 4
M  V30 23 1 22 11
M  V30 24 1 20 15
M  V30 25 1 3 23
M  V30 26 1 5 24
M  V30 27 1 6 25
M  V30 28 1 7 26
M  V30 29 1 10 27
M  V30 30 1 12 28
M  V30 31 1 13 29
M  V30 32 1 16 30
M  V30 33 1 17 31
M  V30 34 1 18 32
M  V30 35 1 19 33
M  V30 END BOND
M  V30 END CTAB
M  END
>  <Dataset>  (530) 
ChEMBL_Kinases

>  <Ligand_Instance>  (530) 
nan

>  <PDB_ID>  (530) 
nan

>  <Standardized_SMILES>  (530) 
O=C(Nc1cccc(F)c1)c1ccc(-c2ccccc2Cl)o1

>  <Name>  (530) 
nan

>  <Pocket>  (530) 
nan

>  <ATP_Site>  (530) 
nan

>  <Peripheral>  (530) 
nan

>  <Num_H_Atoms_ProtBoundConf>  (530) 
nan

>  <Num_Resolved_Atoms>  (530) 
nan

>  <Num_Not_Resolved_Atoms>  (530) 
nan

$$$$
CHEMBL1459223
     RDKit          3D

  0  0  0  0  0  0  0  0  0  0999 V3000
M  V30 BEGIN CTAB
M  V30 COUNTS 49 52 0 0 0
M  V30 BEGIN ATOM
M  V30 1 C 1.572208 -6.591817 0.626950 0
M  V30 2 O 0.447983 -5.808180 0.291385 0
M  V30 3 C 0.518229 -4.445137 0.078159 0
M  V30 4 C 1.658457 -3.678980 0.163222 0
M  V30 5 C 1.566682 -2.316448 -0.081784 0
M  V30 6 C 0.393787 -1.658128 -0.412783 0
M  V30 7 C 0.328811 -0.247896 -0.650130 0
M  V30 8 O -0.894092 0.162212 -0.666236 0
M  V30 9 N 1.244164 0.805904 -0.866217 0
M  V30 10 C 2.699683 0.936912 -0.965694 0
M  V30 11 C 3.093064 1.407149 0.430279 0
M  V30 12 C 2.421059 2.670435 0.804099 0
M  V30 13 C 1.244539 3.104231 0.017620 0
M  V30 14 C 0.125015 3.383590 0.967177 0
M  V30 15 N -0.455057 2.313412 1.526740 0
M  V30 16 C -1.444974 2.628412 2.361656 0
M  V30 17 C -2.240037 1.621776 3.087088 0
M  V30 18 C -2.295112 0.979551 4.247176 0
M  V30 19 C -3.294353 0.075058 4.450757 0
M  V30 20 C -4.213359 -0.122441 3.406213 0
M  V30 21 S -3.588726 1.054058 2.094033 0
M  V30 22 N -1.460206 3.974596 2.300539 0
M  V30 23 O -0.538894 4.384968 1.483639 0
M  V30 24 C 0.746139 2.154658 -1.015065 0
M  V30 25 C -0.695318 -2.493046 -0.476971 0
M  V30 26 C -0.677092 -3.852934 -0.243610 0
M  V30 27 O -1.833734 -4.534400 -0.338582 0
M  V30 28 C -3.107545 -4.106802 -0.668214 0
M  V30 29 H 1.457842 -7.642165 0.268764 0
M  V30 30 H 2.454215 -6.147303 0.135651 0
M  V30 31 H 1.737279 -6.573612 1.731724 0
M  V30 32 H 2.578919 -4.165572 0.420155 0
M  V30 33 H 2.503066 -1.830719 0.024023 0
M  V30 34 H 2.975663 1.717570 -1.692850 0
M  V30 35 H 3.191171 -0.029371 -1.208404 0
M  V30 36 H 2.826651 0.556107 1.121729 0
M  V30 37 H 4.202522 1.518183 0.506014 0
M  V30 38 H 2.177493 2.573718 1.905345 0
M  V30 39 H 3.194405 3.488001 0.810247 0
M  V30 40 H 1.452541 4.082929 -0.462248 0
M  V30 41 H -1.523447 1.233563 4.956733 0
M  V30 42 H -3.382572 -0.477865 5.384826 0
M  V30 43 H -5.058899 -0.836726 3.479806 0
M  V30 44 H -0.359893 2.102803 -1.010159 0
M  V30 45 H 1.003394 2.471720 -2.046889 0
M  V30 46 H -1.634935 -2.029601 -0.737358 0
M  V30 47 H -3.277564 -3.072166 -0.347719 0
M  V30 48 H -3.919830 -4.700327 -0.174377 0
M  V30 49 H -3.326440 -4.147326 -1.770858 0
M  V30 END ATOM
M  V30 BEGIN BOND
M  V30 1 1 1 2
M  V30 2 1 2 3
M  V30 3 2 3 4
M  V30 4 1 4 5
M  V30 5 2 5 6
M  V30 6 1 6 7
M  V30 7 2 7 8
M  V30 8 1 7 9
M  V30 9 1 9 10
M  V30 10 1 10 11
M  V30 11 1 11 12
M  V30 12 1 12 13
M  V30 13 1 13 14
M  V30 14 2 14 15
M  V30 15 1 15 16
M  V30 16 1 16 17
M  V30 17 2 17 18
M  V30 18 1 18 19
M  V30 19 2 19 20
M  V30 20 1 20 21
M  V30 21 2 16 22
M  V30 22 1 22 23
M  V30 23 1 13 24
M  V30 24 1 6 25
M  V30 25 2 25 26
M  V30 26 1 26 27
M  V30 27 1 27 28
M  V30 28 1 26 3
M  V30 29 1 24 9
M  V30 30 1 23 14
M  V30 31 1 21 17
M  V30 32 1 1 29
M  V30 33 1 1 30
M  V30 34 1 1 31
M  V30 35 1 4 32
M  V30 36 1 5 33
M  V30 37 1 10 34
M  V30 38 1 10 35
M  V30 39 1 11 36
M  V30 40 1 11 37
M  V30 41 1 12 38
M  V30 42 1 12 39
M  V30 43 1 13 40
M  V30 44 1 18 41
M  V30 45 1 19 42
M  V30 46 1 20 43
M  V30 47 1 24 44
M  V30 48 1 24 45
M  V30 49 1 25 46
M  V30 50 1 28 47
M  V30 51 1 28 48
M  V30 52 1 28 49
M  V30 END BOND
M  V30 END CTAB
M  END
>  <Dataset>  (531) 
ChEMBL_Kinases

>  <Ligand_Instance>  (531) 
nan

>  <PDB_ID>  (531) 
nan

>  <Standardized_SMILES>  (531) 
COc1ccc(C(=O)N2CCCC(c3nc(-c4cccs4)no3)C2)cc1OC

>  <Name>  (531) 
nan

>  <Pocket>  (531) 
nan

>  <ATP_Site>  (531) 
nan

>  <Peripheral>  (531) 
nan

>  <Num_H_Atoms_ProtBoundConf>  (531) 
nan

>  <Num_Resolved_Atoms>  (531) 
nan

>  <Num_Not_Resolved_Atoms>  (531) 
nan

$$$$
CHEMBL1459342
     RDKit          3D

  0  0  0  0  0  0  0  0  0  0999 V3000
M  V30 BEGIN CTAB
M  V30 COUNTS 50 52 0 0 0
M  V30 BEGIN ATOM
M  V30 1 C 2.753137 -6.482870 3.819941 0
M  V30 2 C 4.182420 -6.095595 3.650606 0
M  V30 3 O 4.473708 -4.743009 3.889415 0
M  V30 4 C 3.935323 -3.691449 3.184482 0
M  V30 5 C 4.217932 -2.357558 3.421615 0
M  V30 6 C 3.672804 -1.314651 2.708507 0
M  V30 7 C 2.782087 -1.549491 1.680381 0
M  V30 8 N 2.168067 -0.686785 0.900477 0
M  V30 9 C 1.431665 -0.845485 0.048964 0
M  V30 10 N 0.744104 0.162752 -0.827646 0
M  V30 11 C -0.484284 0.537497 -0.219425 0
M  V30 12 O -0.817113 0.016124 0.893851 0
M  V30 13 C -1.334212 1.516379 -0.893392 0
M  V30 14 C -0.549414 2.841532 -0.906435 0
M  V30 15 C -0.281163 3.222785 0.537550 0
M  V30 16 S 0.644569 4.779610 0.672689 0
M  V30 17 C -0.323735 6.186473 0.088148 0
M  V30 18 N -2.551832 1.844140 -0.210451 0
M  V30 19 S -3.973188 1.687182 -1.127907 0
M  V30 20 O -3.952491 2.570572 -2.338193 0
M  V30 21 O -5.159861 2.068667 -0.271099 0
M  V30 22 C -4.171972 0.044280 -1.624693 0
M  V30 23 C -3.586200 -1.204366 -1.535653 0
M  V30 24 C -4.193175 -2.259846 -2.155539 0
M  V30 25 C -5.358312 -2.042127 -2.841446 0
M  V30 26 S -5.655462 -0.277455 -2.632465 0
M  V30 27 S 1.354344 -2.756974 0.092766 0
M  V30 28 C 2.517730 -2.840889 1.461495 0
M  V30 29 C 3.048468 -3.935756 2.161250 0
M  V30 30 H 2.585305 -7.127197 4.724598 0
M  V30 31 H 2.061420 -5.608422 3.996601 0
M  V30 32 H 2.376335 -6.983097 2.905401 0
M  V30 33 H 4.850146 -6.771043 4.249042 0
M  V30 34 H 4.479150 -6.327941 2.585588 0
M  V30 35 H 4.932416 -2.199511 4.248289 0
M  V30 36 H 4.020659 -0.335457 3.047162 0
M  V30 37 H 1.121758 0.502167 -1.708341 0
M  V30 38 H -1.526461 1.193082 -1.933211 0
M  V30 39 H -1.283394 3.587832 -1.283513 0
M  V30 40 H 0.357648 2.790615 -1.504662 0
M  V30 41 H 0.380939 2.455714 1.035587 0
M  V30 42 H -1.245251 3.257284 1.084974 0
M  V30 43 H -0.715861 6.711409 0.996139 0
M  V30 44 H -1.202856 5.885255 -0.485226 0
M  V30 45 H 0.355419 6.840719 -0.496151 0
M  V30 46 H -2.598805 1.259956 0.653087 0
M  V30 47 H -2.680865 -1.170205 -0.955493 0
M  V30 48 H -3.703534 -3.239931 -2.066543 0
M  V30 49 H -5.894621 -2.866064 -3.364588 0
M  V30 50 H 2.698027 -4.890289 1.812732 0
M  V30 END ATOM
M  V30 BEGIN BOND
M  V30 1 1 1 2
M  V30 2 1 2 3
M  V30 3 1 3 4
M  V30 4 2 4 5
M  V30 5 1 5 6
M  V30 6 2 6 7
M  V30 7 1 7 8
M  V30 8 2 8 9
M  V30 9 1 9 10
M  V30 10 1 10 11
M  V30 11 2 11 12
M  V30 12 1 11 13
M  V30 13 1 13 14
M  V30 14 1 14 15
M  V30 15 1 15 16
M  V30 16 1 16 17
M  V30 17 1 13 18
M  V30 18 1 18 19
M  V30 19 2 19 20
M  V30 20 2 19 21
M  V30 21 1 19 22
M  V30 22 2 22 23
M  V30 23 1 23 24
M  V30 24 2 24 25
M  V30 25 1 25 26
M  V30 26 1 9 27
M  V30 27 1 27 28
M  V30 28 2 28 29
M  V30 29 1 29 4
M  V30 30 1 28 7
M  V30 31 1 26 22
M  V30 32 1 1 30
M  V30 33 1 1 31
M  V30 34 1 1 32
M  V30 35 1 2 33
M  V30 36 1 2 34
M  V30 37 1 5 35
M  V30 38 1 6 36
M  V30 39 1 10 37
M  V30 40 1 13 38
M  V30 41 1 14 39
M  V30 42 1 14 40
M  V30 43 1 15 41
M  V30 44 1 15 42
M  V30 45 1 17 43
M  V30 46 1 17 44
M  V30 47 1 17 45
M  V30 48 1 18 46
M  V30 49 1 23 47
M  V30 50 1 24 48
M  V30 51 1 25 49
M  V30 52 1 29 50
M  V30 END BOND
M  V30 END CTAB
M  END
>  <Dataset>  (532) 
ChEMBL_Kinases

>  <Ligand_Instance>  (532) 
nan

>  <PDB_ID>  (532) 
nan

>  <Standardized_SMILES>  (532) 
CCOc1ccc2nc(NC(=O)C(CCSC)NS(=O)(=O)c3cccs3)sc2c1

>  <Name>  (532) 
nan

>  <Pocket>  (532) 
nan

>  <ATP_Site>  (532) 
nan

>  <Peripheral>  (532) 
nan

>  <Num_H_Atoms_ProtBoundConf>  (532) 
nan

>  <Num_Resolved_Atoms>  (532) 
nan

>  <Num_Not_Resolved_Atoms>  (532) 
nan

$$$$
CHEMBL1459356
     RDKit          3D

  0  0  0  0  0  0  0  0  0  0999 V3000
M  V30 BEGIN CTAB
M  V30 COUNTS 50 53 0 0 0
M  V30 BEGIN ATOM
M  V30 1 C -0.233779 -4.931719 2.790711 0
M  V30 2 O 0.725088 -5.100216 1.768839 0
M  V30 3 C 1.409734 -3.977853 1.328029 0
M  V30 4 C 1.139196 -2.741152 1.893714 0
M  V30 5 C 1.769101 -1.549300 1.525246 0
M  V30 6 C 2.733535 -1.638000 0.515444 0
M  V30 7 C 3.342860 -0.351721 0.187148 0
M  V30 8 N 4.450227 0.303132 0.570366 0
M  V30 9 O 4.507066 1.426072 -0.043104 0
M  V30 10 C 3.465352 1.542316 -0.829377 0
M  V30 11 C 3.123888 2.682201 -1.727709 0
M  V30 12 S 2.091690 3.905264 -0.828654 0
M  V30 13 C 0.511548 3.175062 -0.422449 0
M  V30 14 N 0.506087 2.543150 0.788368 0
M  V30 15 C -0.613400 1.938318 1.240093 0
M  V30 16 N -0.638898 1.276412 2.495585 0
M  V30 17 C -1.778616 1.937151 0.502383 0
M  V30 18 C -3.015861 1.329801 0.879673 0
M  V30 19 C -4.051604 1.932051 1.598057 0
M  V30 20 C -5.164273 1.172145 1.859834 0
M  V30 21 C -5.351551 -0.137007 1.475706 0
M  V30 22 C -4.310213 -0.736646 0.755432 0
M  V30 23 C -3.182026 0.013503 0.482593 0
M  V30 24 C -1.751519 2.590791 -0.736711 0
M  V30 25 O -2.798121 2.706204 -1.623613 0
M  V30 26 N -0.617701 3.187953 -1.164271 0
M  V30 27 N 2.701487 0.418106 -0.702861 0
M  V30 28 C 3.023791 -2.845957 -0.063762 0
M  V30 29 C 2.368413 -4.005891 0.338138 0
M  V30 30 O 2.663505 -5.222847 -0.248294 0
M  V30 31 C 3.615725 -5.393652 -1.265207 0
M  V30 32 H -0.732949 -5.880338 3.010096 0
M  V30 33 H 0.278824 -4.595568 3.716946 0
M  V30 34 H -1.000817 -4.169130 2.501966 0
M  V30 35 H 0.384452 -2.675314 2.683762 0
M  V30 36 H 1.499234 -0.638693 2.013403 0
M  V30 37 H 2.567456 2.257289 -2.586888 0
M  V30 38 H 4.025773 3.201633 -2.109993 0
M  V30 39 H -0.789669 1.711335 3.454686 0
M  V30 40 H -0.784616 1.664986 3.468750 0
M  V30 41 H -3.898270 2.958788 1.896349 0
M  V30 42 H -5.930963 1.691428 2.418217 0
M  V30 43 H -6.254563 -0.683532 1.714341 0
M  V30 44 H -4.415683 -1.768194 0.432043 0
M  V30 45 H -2.415128 -0.530174 -0.084636 0
M  V30 46 H -3.763672 2.512704 -1.327165 0
M  V30 47 H 3.769649 -2.843415 -0.827535 0
M  V30 48 H 3.896223 -6.454447 -1.357862 0
M  V30 49 H 3.271356 -4.987614 -2.231290 0
M  V30 50 H 4.554156 -4.860851 -0.955273 0
M  V30 END ATOM
M  V30 BEGIN BOND
M  V30 1 1 1 2
M  V30 2 1 2 3
M  V30 3 2 3 4
M  V30 4 1 4 5
M  V30 5 2 5 6
M  V30 6 1 6 7
M  V30 7 2 7 8
M  V30 8 1 8 9
M  V30 9 1 9 10
M  V30 10 1 10 11
M  V30 11 1 11 12
M  V30 12 1 12 13
M  V30 13 2 13 14
M  V30 14 1 14 15
M  V30 15 1 15 16
M  V30 16 2 15 17
M  V30 17 1 17 18
M  V30 18 2 18 19
M  V30 19 1 19 20
M  V30 20 2 20 21
M  V30 21 1 21 22
M  V30 22 2 22 23
M  V30 23 1 17 24
M  V30 24 1 24 25
M  V30 25 2 24 26
M  V30 26 2 10 27
M  V30 27 1 6 28
M  V30 28 2 28 29
M  V30 29 1 29 30
M  V30 30 1 30 31
M  V30 31 1 29 3
M  V30 32 1 27 7
M  V30 33 1 26 13
M  V30 34 1 23 18
M  V30 35 1 1 32
M  V30 36 1 1 33
M  V30 37 1 1 34
M  V30 38 1 4 35
M  V30 39 1 5 36
M  V30 40 1 11 37
M  V30 41 1 11 38
M  V30 42 1 16 39
M  V30 43 1 16 40
M  V30 44 1 19 41
M  V30 45 1 20 42
M  V30 46 1 21 43
M  V30 47 1 22 44
M  V30 48 1 23 45
M  V30 49 1 25 46
M  V30 50 1 28 47
M  V30 51 1 31 48
M  V30 52 1 31 49
M  V30 53 1 31 50
M  V30 END BOND
M  V30 END CTAB
M  END
>  <Dataset>  (533) 
ChEMBL_Kinases

>  <Ligand_Instance>  (533) 
nan

>  <PDB_ID>  (533) 
nan

>  <Standardized_SMILES>  (533) 
COc1ccc(-c2noc(CSc3nc(N)c(-c4ccccc4)c(O)n3)n2)cc1OC

>  <Name>  (533) 
nan

>  <Pocket>  (533) 
nan

>  <ATP_Site>  (533) 
nan

>  <Peripheral>  (533) 
nan

>  <Num_H_Atoms_ProtBoundConf>  (533) 
nan

>  <Num_Resolved_Atoms>  (533) 
nan

>  <Num_Not_Resolved_Atoms>  (533) 
nan

$$$$
CHEMBL1459363
     RDKit          3D

  0  0  0  0  0  0  0  0  0  0999 V3000
M  V30 BEGIN CTAB
M  V30 COUNTS 50 52 0 0 0
M  V30 BEGIN ATOM
M  V30 1 C 4.225766 -4.993256 -0.143046 0
M  V30 2 O 3.011759 -5.184386 0.559853 0
M  V30 3 C 2.046820 -4.194475 0.445586 0
M  V30 4 C 2.159913 -3.035236 -0.292944 0
M  V30 5 C 1.159213 -2.091576 -0.362364 0
M  V30 6 N 1.317146 -0.976312 -1.095927 0
M  V30 7 C 0.353611 -0.022602 -1.188466 0
M  V30 8 C 0.725283 1.127880 -2.049091 0
M  V30 9 N 1.381196 2.152733 -1.346391 0
M  V30 10 C 2.543645 1.738697 -0.683846 0
M  V30 11 C 0.659838 3.271027 -0.932959 0
M  V30 12 C -0.490920 3.055955 -0.038291 0
M  V30 13 C -0.164828 3.064479 1.314312 0
M  V30 14 C -1.090216 2.887999 2.326496 0
M  V30 15 C -2.420343 2.691605 1.958452 0
M  V30 16 S -3.656266 2.458463 3.211175 0
M  V30 17 C -3.904080 0.742607 3.666978 0
M  V30 18 C -2.771989 2.679031 0.609422 0
M  V30 19 C -1.823249 2.858312 -0.376715 0
M  V30 20 N -0.780391 -0.244328 -0.506057 0
M  V30 21 C -0.976748 -1.345394 0.237845 0
M  V30 22 O -2.178111 -1.483205 0.903702 0
M  V30 23 C -0.006082 -2.320148 0.339424 0
M  V30 24 C -0.178332 -3.461053 1.095867 0
M  V30 25 C 0.859641 -4.369662 1.126532 0
M  V30 26 O 0.678235 -5.514419 1.889796 0
M  V30 27 C -0.561108 -5.684855 2.593492 0
M  V30 28 H 4.142784 -5.235663 -1.222447 0
M  V30 29 H 5.021430 -5.645262 0.297624 0
M  V30 30 H 4.616589 -3.958238 -0.044036 0
M  V30 31 H 3.076697 -2.881362 -0.829847 0
M  V30 32 H 1.369549 0.774059 -2.904527 0
M  V30 33 H -0.184606 1.561933 -2.536503 0
M  V30 34 H 2.383536 1.169119 0.262643 0
M  V30 35 H 3.312290 2.549859 -0.532127 0
M  V30 36 H 3.083358 1.014528 -1.359573 0
M  V30 37 H 0.231433 3.783843 -1.848226 0
M  V30 38 H 1.353151 4.049119 -0.519251 0
M  V30 39 H 0.852372 3.211886 1.689878 0
M  V30 40 H -0.849718 2.892921 3.367424 0
M  V30 41 H -4.680394 0.231979 3.076648 0
M  V30 42 H -4.215975 0.696991 4.748406 0
M  V30 43 H -2.971847 0.136661 3.625864 0
M  V30 44 H -3.788733 2.530026 0.293251 0
M  V30 45 H -2.001025 2.863919 -1.440033 0
M  V30 46 H -2.115835 -1.508201 1.922636 0
M  V30 47 H -1.114925 -3.575221 1.619085 0
M  V30 48 H -0.676050 -4.844041 3.305782 0
M  V30 49 H -0.638025 -6.673008 3.045642 0
M  V30 50 H -1.423937 -5.595168 1.888113 0
M  V30 END ATOM
M  V30 BEGIN BOND
M  V30 1 1 1 2
M  V30 2 1 2 3
M  V30 3 2 3 4
M  V30 4 1 4 5
M  V30 5 2 5 6
M  V30 6 1 6 7
M  V30 7 1 7 8
M  V30 8 1 8 9
M  V30 9 1 9 10
M  V30 10 1 9 11
M  V30 11 1 11 12
M  V30 12 2 12 13
M  V30 13 1 13 14
M  V30 14 2 14 15
M  V30 15 1 15 16
M  V30 16 1 16 17
M  V30 17 1 15 18
M  V30 18 2 18 19
M  V30 19 2 7 20
M  V30 20 1 20 21
M  V30 21 1 21 22
M  V30 22 2 21 23
M  V30 23 1 23 24
M  V30 24 2 24 25
M  V30 25 1 25 26
M  V30 26 1 26 27
M  V30 27 1 25 3
M  V30 28 1 23 5
M  V30 29 1 19 12
M  V30 30 1 1 28
M  V30 31 1 1 29
M  V30 32 1 1 30
M  V30 33 1 4 31
M  V30 34 1 8 32
M  V30 35 1 8 33
M  V30 36 1 10 34
M  V30 37 1 10 35
M  V30 38 1 10 36
M  V30 39 1 11 37
M  V30 40 1 11 38
M  V30 41 1 13 39
M  V30 42 1 14 40
M  V30 43 1 17 41
M  V30 44 1 17 42
M  V30 45 1 17 43
M  V30 46 1 18 44
M  V30 47 1 19 45
M  V30 48 1 22 46
M  V30 49 1 24 47
M  V30 50 1 27 48
M  V30 51 1 27 49
M  V30 52 1 27 50
M  V30 END BOND
M  V30 END CTAB
M  END
>  <Dataset>  (534) 
ChEMBL_Kinases

>  <Ligand_Instance>  (534) 
nan

>  <PDB_ID>  (534) 
nan

>  <Standardized_SMILES>  (534) 
COc1cc2nc(CN(C)Cc3ccc(SC)cc3)nc(O)c2cc1OC

>  <Name>  (534) 
nan

>  <Pocket>  (534) 
nan

>  <ATP_Site>  (534) 
nan

>  <Peripheral>  (534) 
nan

>  <Num_H_Atoms_ProtBoundConf>  (534) 
nan

>  <Num_Resolved_Atoms>  (534) 
nan

>  <Num_Not_Resolved_Atoms>  (534) 
nan

$$$$
CHEMBL1459795
     RDKit          3D

  0  0  0  0  0  0  0  0  0  0999 V3000
M  V30 BEGIN CTAB
M  V30 COUNTS 47 49 0 0 0
M  V30 BEGIN ATOM
M  V30 1 C 2.846427 -0.948166 2.629431 0
M  V30 2 C 2.605507 -1.402547 1.209350 0
M  V30 3 C 2.219244 -0.294251 0.262071 0
M  V30 4 C 1.883888 -2.668648 1.063454 0
M  V30 5 C 0.559984 -2.906184 1.595092 0
M  V30 6 N -0.599652 -2.186059 1.222084 0
M  V30 7 C -1.120772 -1.176170 1.912450 0
M  V30 8 S -0.910103 -0.022087 3.184000 0
M  V30 9 C -0.753255 1.655422 2.705696 0
M  V30 10 C 0.358911 2.186615 1.954351 0
M  V30 11 C 1.494498 2.571942 2.649287 0
M  V30 12 C 2.581035 3.201219 2.036109 0
M  V30 13 C 2.488733 3.438831 0.659948 0
M  V30 14 Cl 3.905594 4.220448 0.008211 0
M  V30 15 C 1.354498 3.056065 -0.050108 0
M  V30 16 C 0.282100 2.429045 0.576956 0
M  V30 17 N -2.279651 -0.868317 1.273236 0
M  V30 18 C -2.451435 -1.677238 0.211504 0
M  V30 19 C -1.361048 -2.539532 0.169996 0
M  V30 20 C -1.331662 -3.464027 -0.843251 0
M  V30 21 O -0.320733 -4.209559 -0.817203 0
M  V30 22 N -2.286289 -3.592935 -1.800570 0
M  V30 23 C -3.335366 -2.752231 -1.749055 0
M  V30 24 O -4.265304 -2.797607 -2.591833 0
M  V30 25 N -3.388500 -1.841237 -0.770890 0
M  V30 26 C -4.528509 -0.943386 -0.726957 0
M  V30 27 H 3.215408 -1.834018 3.180709 0
M  V30 28 H 3.706237 -0.228114 2.590246 0
M  V30 29 H 2.021938 -0.428178 3.104706 0
M  V30 30 H 3.685605 -1.649089 0.862386 0
M  V30 31 H 2.547492 0.637392 0.771842 0
M  V30 32 H 2.741317 -0.423131 -0.719979 0
M  V30 33 H 1.137451 -0.291469 0.166143 0
M  V30 34 H 2.593530 -3.491007 1.460202 0
M  V30 35 H 1.949183 -2.916440 -0.061915 0
M  V30 36 H 0.347919 -4.048417 1.508998 0
M  V30 37 H 0.624761 -2.867712 2.754973 0
M  V30 38 H -0.860763 2.335872 3.647167 0
M  V30 39 H -1.723468 1.979902 2.143541 0
M  V30 40 H 1.545544 2.380384 3.730672 0
M  V30 41 H 3.415384 3.460015 2.678794 0
M  V30 42 H 1.377959 3.274287 -1.089747 0
M  V30 43 H -0.580850 2.141424 0.002957 0
M  V30 44 H -2.200061 -4.330730 -2.550752 0
M  V30 45 H -5.469431 -1.499895 -0.981220 0
M  V30 46 H -4.397916 -0.056491 -1.366083 0
M  V30 47 H -4.735293 -0.558263 0.314598 0
M  V30 END ATOM
M  V30 BEGIN BOND
M  V30 1 1 1 2
M  V30 2 1 2 3
M  V30 3 1 2 4
M  V30 4 1 4 5
M  V30 5 1 5 6
M  V30 6 1 6 7
M  V30 7 1 7 8
M  V30 8 1 8 9
M  V30 9 1 9 10
M  V30 10 2 10 11
M  V30 11 1 11 12
M  V30 12 2 12 13
M  V30 13 1 13 14
M  V30 14 1 13 15
M  V30 15 2 15 16
M  V30 16 2 7 17
M  V30 17 1 17 18
M  V30 18 2 18 19
M  V30 19 1 19 20
M  V30 20 2 20 21
M  V30 21 1 20 22
M  V30 22 1 22 23
M  V30 23 2 23 24
M  V30 24 1 23 25
M  V30 25 1 25 26
M  V30 26 1 19 6
M  V30 27 1 16 10
M  V30 28 1 25 18
M  V30 29 1 1 27
M  V30 30 1 1 28
M  V30 31 1 1 29
M  V30 32 1 2 30
M  V30 33 1 3 31
M  V30 34 1 3 32
M  V30 35 1 3 33
M  V30 36 1 4 34
M  V30 37 1 4 35
M  V30 38 1 5 36
M  V30 39 1 5 37
M  V30 40 1 9 38
M  V30 41 1 9 39
M  V30 42 1 11 40
M  V30 43 1 12 41
M  V30 44 1 15 42
M  V30 45 1 16 43
M  V30 46 1 22 44
M  V30 47 1 26 45
M  V30 48 1 26 46
M  V30 49 1 26 47
M  V30 END BOND
M  V30 END CTAB
M  END
>  <Dataset>  (535) 
ChEMBL_Kinases

>  <Ligand_Instance>  (535) 
nan

>  <PDB_ID>  (535) 
nan

>  <Standardized_SMILES>  (535) 
CC(C)CCn1c(SCc2ccc(Cl)cc2)nc2c1c(=O)[nH]c(=O)n2C

>  <Name>  (535) 
nan

>  <Pocket>  (535) 
nan

>  <ATP_Site>  (535) 
nan

>  <Peripheral>  (535) 
nan

>  <Num_H_Atoms_ProtBoundConf>  (535) 
nan

>  <Num_Resolved_Atoms>  (535) 
nan

>  <Num_Not_Resolved_Atoms>  (535) 
nan

$$$$
CHEMBL1459867
     RDKit          3D

  0  0  0  0  0  0  0  0  0  0999 V3000
M  V30 BEGIN CTAB
M  V30 COUNTS 41 42 0 0 0
M  V30 BEGIN ATOM
M  V30 1 O -2.860758 0.990589 1.457711 0
M  V30 2 C -2.259653 -0.097861 1.142702 0
M  V30 3 C -3.064378 -1.325249 0.826104 0
M  V30 4 N -2.293752 -2.444262 0.501232 0
M  V30 5 C -1.476293 -3.045499 1.493268 0
M  V30 6 C -0.117728 -3.455454 0.929737 0
M  V30 7 C -0.295074 -4.407105 -0.235253 0
M  V30 8 C -1.613524 -4.181706 -0.959874 0
M  V30 9 C -1.936535 -2.697247 -0.843299 0
M  V30 10 N -1.053427 0.717894 1.335868 0
M  V30 11 C 0.009696 1.521221 1.597339 0
M  V30 12 O -0.722581 1.978630 2.433395 0
M  V30 13 N 1.076828 1.233103 0.763192 0
M  V30 14 C 2.051895 2.180451 1.215899 0
M  V30 15 C 2.960428 1.539797 2.291418 0
M  V30 16 C 4.143019 2.508087 2.189225 0
M  V30 17 C 4.366773 2.453256 0.671542 0
M  V30 18 C 2.960111 2.632917 0.115531 0
M  V30 19 H -3.773166 -1.052623 0.025803 0
M  V30 20 H -3.642669 -1.510930 1.748383 0
M  V30 21 H -1.288590 -2.479099 2.401260 0
M  V30 22 H -1.948801 -4.012639 1.806740 0
M  V30 23 H 0.478893 -2.570684 0.627188 0
M  V30 24 H 0.426529 -3.969256 1.735670 0
M  V30 25 H 0.501217 -4.226472 -0.992667 0
M  V30 26 H -0.199492 -5.455995 0.095938 0
M  V30 27 H -2.381114 -4.746933 -0.360286 0
M  V30 28 H -1.505265 -4.539215 -1.991459 0
M  V30 29 H -1.085184 -2.104671 -1.217315 0
M  V30 30 H -2.842742 -2.550208 -1.479268 0
M  V30 31 H -1.756701 0.247305 1.224643 0
M  V30 32 H 1.078282 0.510483 0.030459 0
M  V30 33 H 1.638228 3.064472 1.737149 0
M  V30 34 H 3.313631 0.551583 2.012447 0
M  V30 35 H 2.475501 1.555639 3.262083 0
M  V30 36 H 3.822803 3.542195 2.466585 0
M  V30 37 H 5.033269 2.148279 2.703497 0
M  V30 38 H 4.740294 1.451225 0.399726 0
M  V30 39 H 5.009301 3.285929 0.343025 0
M  V30 40 H 2.767075 3.685384 -0.184257 0
M  V30 41 H 2.816485 1.978619 -0.765996 0
M  V30 END ATOM
M  V30 BEGIN BOND
M  V30 1 2 1 2
M  V30 2 1 2 3
M  V30 3 1 3 4
M  V30 4 1 4 5
M  V30 5 1 5 6
M  V30 6 1 6 7
M  V30 7 1 7 8
M  V30 8 1 8 9
M  V30 9 1 2 10
M  V30 10 1 10 11
M  V30 11 2 11 12
M  V30 12 1 11 13
M  V30 13 1 13 14
M  V30 14 1 14 15
M  V30 15 1 15 16
M  V30 16 1 16 17
M  V30 17 1 17 18
M  V30 18 1 9 4
M  V30 19 1 18 14
M  V30 20 1 3 19
M  V30 21 1 3 20
M  V30 22 1 5 21
M  V30 23 1 5 22
M  V30 24 1 6 23
M  V30 25 1 6 24
M  V30 26 1 7 25
M  V30 27 1 7 26
M  V30 28 1 8 27
M  V30 29 1 8 28
M  V30 30 1 9 29
M  V30 31 1 9 30
M  V30 32 1 10 31
M  V30 33 1 13 32
M  V30 34 1 14 33
M  V30 35 1 15 34
M  V30 36 1 15 35
M  V30 37 1 16 36
M  V30 38 1 16 37
M  V30 39 1 17 38
M  V30 40 1 17 39
M  V30 41 1 18 40
M  V30 42 1 18 41
M  V30 END BOND
M  V30 END CTAB
M  END
>  <Dataset>  (536) 
ChEMBL_Kinases

>  <Ligand_Instance>  (536) 
nan

>  <PDB_ID>  (536) 
nan

>  <Standardized_SMILES>  (536) 
O=C(CN1CCCCC1)NC(=O)NC1CCCC1

>  <Name>  (536) 
nan

>  <Pocket>  (536) 
nan

>  <ATP_Site>  (536) 
nan

>  <Peripheral>  (536) 
nan

>  <Num_H_Atoms_ProtBoundConf>  (536) 
nan

>  <Num_Resolved_Atoms>  (536) 
nan

>  <Num_Not_Resolved_Atoms>  (536) 
nan

$$$$
CHEMBL1459902
     RDKit          3D

  0  0  0  0  0  0  0  0  0  0999 V3000
M  V30 BEGIN CTAB
M  V30 COUNTS 57 60 0 0 0
M  V30 BEGIN ATOM
M  V30 1 C 1.117465 -0.679361 -7.950520 0
M  V30 2 O 1.992730 -0.763822 -6.846044 0
M  V30 3 C 1.525288 -0.705254 -5.543730 0
M  V30 4 C 0.260062 -0.568120 -5.013284 0
M  V30 5 C 0.097810 -0.541054 -3.643724 0
M  V30 6 C 1.150379 -0.645460 -2.760910 0
M  V30 7 N 0.829530 -0.598949 -1.367470 0
M  V30 8 C 0.136450 -1.567434 -0.747576 0
M  V30 9 C -0.398057 -2.806153 -1.367562 0
M  V30 10 C 0.049598 -1.136804 0.558239 0
M  V30 11 C 0.689746 0.070053 0.680048 0
M  V30 12 C 0.878268 0.931521 1.838198 0
M  V30 13 O 1.520183 2.012477 1.682135 0
M  V30 14 C 0.492357 0.882833 3.261697 0
M  V30 15 N -0.249702 -0.294883 3.643123 0
M  V30 16 C -1.610477 -0.371916 3.595039 0
M  V30 17 N -2.497694 0.650072 3.170858 0
M  V30 18 C -3.934301 0.384344 3.186323 0
M  V30 19 C -4.411477 0.053450 4.587833 0
M  V30 20 O -5.774919 -0.188441 4.543906 0
M  V30 21 N -1.915172 -1.606283 4.029467 0
M  V30 22 C -0.800084 -2.286045 4.340601 0
M  V30 23 C -0.605137 -3.564786 4.819769 0
M  V30 24 C 0.668887 -4.065059 5.074604 0
M  V30 25 C 1.712886 -3.200766 4.816910 0
M  V30 26 C 1.554960 -1.916522 4.337773 0
M  V30 27 C 0.273995 -1.459990 4.098589 0
M  V30 28 C 1.188763 0.420830 -0.536909 0
M  V30 29 C 1.961019 1.609506 -0.983476 0
M  V30 30 C 2.421097 -0.783149 -3.277662 0
M  V30 31 C 2.609225 -0.813083 -4.663423 0
M  V30 32 H 0.871451 -1.684643 -8.369351 0
M  V30 33 H 1.550633 -0.029076 -8.762376 0
M  V30 34 H 0.151625 -0.205281 -7.684381 0
M  V30 35 H -0.478910 -0.496509 -5.780469 0
M  V30 36 H -0.949845 -0.428467 -3.373613 0
M  V30 37 H -0.967025 -2.560185 -2.276337 0
M  V30 38 H -1.087209 -3.319737 -0.646844 0
M  V30 39 H 0.458929 -3.476201 -1.571928 0
M  V30 40 H -0.445490 -1.687125 1.318947 0
M  V30 41 H 1.397078 0.993694 3.927488 0
M  V30 42 H -0.098520 1.819494 3.501245 0
M  V30 43 H -2.106024 1.563825 2.859163 0
M  V30 44 H -4.497726 1.265332 2.864792 0
M  V30 45 H -4.187670 -0.471548 2.495626 0
M  V30 46 H -3.921718 -0.816251 5.035196 0
M  V30 47 H -4.196726 0.958211 5.220572 0
M  V30 48 H -6.143326 -0.212571 3.623116 0
M  V30 49 H -1.473840 -4.205435 5.005623 0
M  V30 50 H 0.783281 -5.060499 5.445525 0
M  V30 51 H 2.709331 -3.559300 5.004297 0
M  V30 52 H 2.402103 -1.258624 4.144470 0
M  V30 53 H 1.240909 2.442398 -1.100924 0
M  V30 54 H 2.796592 1.835685 -0.290314 0
M  V30 55 H 2.417105 1.417687 -1.975462 0
M  V30 56 H 3.229239 -0.863089 -2.565066 0
M  V30 57 H 3.674086 -0.927287 -4.920728 0
M  V30 END ATOM
M  V30 BEGIN BOND
M  V30 1 1 1 2
M  V30 2 1 2 3
M  V30 3 2 3 4
M  V30 4 1 4 5
M  V30 5 2 5 6
M  V30 6 1 6 7
M  V30 7 1 7 8
M  V30 8 1 8 9
M  V30 9 2 8 10
M  V30 10 1 10 11
M  V30 11 1 11 12
M  V30 12 2 12 13
M  V30 13 1 12 14
M  V30 14 1 14 15
M  V30 15 1 15 16
M  V30 16 1 16 17
M  V30 17 1 17 18
M  V30 18 1 18 19
M  V30 19 1 19 20
M  V30 20 2 16 21
M  V30 21 1 21 22
M  V30 22 2 22 23
M  V30 23 1 23 24
M  V30 24 2 24 25
M  V30 25 1 25 26
M  V30 26 2 26 27
M  V30 27 2 11 28
M  V30 28 1 28 29
M  V30 29 1 6 30
M  V30 30 2 30 31
M  V30 31 1 31 3
M  V30 32 1 28 7
M  V30 33 1 27 15
M  V30 34 1 27 22
M  V30 35 1 1 32
M  V30 36 1 1 33
M  V30 37 1 1 34
M  V30 38 1 4 35
M  V30 39 1 5 36
M  V30 40 1 9 37
M  V30 41 1 9 38
M  V30 42 1 9 39
M  V30 43 1 10 40
M  V30 44 1 14 41
M  V30 45 1 14 42
M  V30 46 1 17 43
M  V30 47 1 18 44
M  V30 48 1 18 45
M  V30 49 1 19 46
M  V30 50 1 19 47
M  V30 51 1 20 48
M  V30 52 1 23 49
M  V30 53 1 24 50
M  V30 54 1 25 51
M  V30 55 1 26 52
M  V30 56 1 29 53
M  V30 57 1 29 54
M  V30 58 1 29 55
M  V30 59 1 30 56
M  V30 60 1 31 57
M  V30 END BOND
M  V30 END CTAB
M  END
>  <Dataset>  (537) 
ChEMBL_Kinases

>  <Ligand_Instance>  (537) 
nan

>  <PDB_ID>  (537) 
nan

>  <Standardized_SMILES>  (537) 
COc1ccc(-n2c(C)cc(C(=O)Cn3c(NCCO)nc4ccccc43)c2C)cc1

>  <Name>  (537) 
nan

>  <Pocket>  (537) 
nan

>  <ATP_Site>  (537) 
nan

>  <Peripheral>  (537) 
nan

>  <Num_H_Atoms_ProtBoundConf>  (537) 
nan

>  <Num_Resolved_Atoms>  (537) 
nan

>  <Num_Not_Resolved_Atoms>  (537) 
nan

$$$$
CHEMBL1459193
     RDKit          3D

  0  0  0  0  0  0  0  0  0  0999 V3000
M  V30 BEGIN CTAB
M  V30 COUNTS 41 44 0 0 0
M  V30 BEGIN ATOM
M  V30 1 C -0.252748 -5.869924 2.300917 0
M  V30 2 N 0.395079 -4.893022 1.447081 0
M  V30 3 C 1.140645 -3.801742 1.785712 0
M  V30 4 C 1.546094 -3.176111 0.615059 0
M  V30 5 C 2.379349 -1.947751 0.562989 0
M  V30 6 N 1.512287 -0.785887 0.564083 0
M  V30 7 C 0.780566 -0.351222 -0.573263 0
M  V30 8 O 0.866255 -0.995156 -1.673844 0
M  V30 9 C -0.104401 0.866774 -0.507639 0
M  V30 10 C 0.790878 1.990086 -0.145268 0
M  V30 11 C 1.783027 2.273656 -1.065476 0
M  V30 12 C 2.682458 3.311163 -0.827722 0
M  V30 13 C 2.620525 4.089556 0.323241 0
M  V30 14 C 1.612836 3.771752 1.216954 0
M  V30 15 C 0.710381 2.747087 1.000814 0
M  V30 16 O -0.269118 2.492092 1.942919 0
M  V30 17 C -1.162932 1.462745 1.708588 0
M  V30 18 C -2.144589 1.205898 2.650749 0
M  V30 19 C -3.089840 0.202098 2.519103 0
M  V30 20 C -3.001427 -0.563113 1.351758 0
M  V30 21 C -2.027083 -0.315127 0.407002 0
M  V30 22 C -1.096748 0.696470 0.568843 0
M  V30 23 C 1.020908 -3.925743 -0.417319 0
M  V30 24 N 0.336827 -4.947167 0.121245 0
M  V30 25 H -0.155874 -5.576060 3.375258 0
M  V30 26 H -1.335196 -5.956879 2.075016 0
M  V30 27 H 0.240372 -6.852422 2.205829 0
M  V30 28 H 1.334382 -3.541675 2.830945 0
M  V30 29 H 3.039194 -1.862029 1.446185 0
M  V30 30 H 3.002842 -1.997703 -0.373069 0
M  V30 31 H 1.381115 -0.198094 1.424735 0
M  V30 32 H -0.583029 1.021567 -1.495105 0
M  V30 33 H 1.917868 1.718758 -2.004893 0
M  V30 34 H 3.462066 3.519839 -1.569776 0
M  V30 35 H 3.348440 4.857647 0.416762 0
M  V30 36 H 1.565472 4.380456 2.115310 0
M  V30 37 H -2.168920 1.837463 3.550432 0
M  V30 38 H -3.819987 0.072667 3.303442 0
M  V30 39 H -3.751788 -1.342389 1.270794 0
M  V30 40 H -2.093733 -0.990136 -0.432735 0
M  V30 41 H 1.140379 -3.724472 -1.460574 0
M  V30 END ATOM
M  V30 BEGIN BOND
M  V30 1 1 1 2
M  V30 2 1 2 3
M  V30 3 2 3 4
M  V30 4 1 4 5
M  V30 5 1 5 6
M  V30 6 1 6 7
M  V30 7 2 7 8
M  V30 8 1 7 9
M  V30 9 1 9 10
M  V30 10 2 10 11
M  V30 11 1 11 12
M  V30 12 2 12 13
M  V30 13 1 13 14
M  V30 14 2 14 15
M  V30 15 1 15 16
M  V30 16 1 16 17
M  V30 17 2 17 18
M  V30 18 1 18 19
M  V30 19 2 19 20
M  V30 20 1 20 21
M  V30 21 2 21 22
M  V30 22 1 4 23
M  V30 23 2 23 24
M  V30 24 1 24 2
M  V30 25 1 22 9
M  V30 26 1 15 10
M  V30 27 1 22 17
M  V30 28 1 1 25
M  V30 29 1 1 26
M  V30 30 1 1 27
M  V30 31 1 3 28
M  V30 32 1 5 29
M  V30 33 1 5 30
M  V30 34 1 6 31
M  V30 35 1 9 32
M  V30 36 1 11 33
M  V30 37 1 12 34
M  V30 38 1 13 35
M  V30 39 1 14 36
M  V30 40 1 18 37
M  V30 41 1 19 38
M  V30 42 1 20 39
M  V30 43 1 21 40
M  V30 44 1 23 41
M  V30 END BOND
M  V30 END CTAB
M  END
>  <Dataset>  (538) 
ChEMBL_Kinases

>  <Ligand_Instance>  (538) 
nan

>  <PDB_ID>  (538) 
nan

>  <Standardized_SMILES>  (538) 
Cn1cc(CNC(=O)C2c3ccccc3Oc3ccccc32)cn1

>  <Name>  (538) 
nan

>  <Pocket>  (538) 
nan

>  <ATP_Site>  (538) 
nan

>  <Peripheral>  (538) 
nan

>  <Num_H_Atoms_ProtBoundConf>  (538) 
nan

>  <Num_Resolved_Atoms>  (538) 
nan

>  <Num_Not_Resolved_Atoms>  (538) 
nan

$$$$
CHEMBL1426800
     RDKit          3D

  0  0  0  0  0  0  0  0  0  0999 V3000
M  V30 BEGIN CTAB
M  V30 COUNTS 35 36 0 0 0
M  V30 BEGIN ATOM
M  V30 1 C -0.755481 -2.153289 4.230859 0
M  V30 2 C -0.177105 -1.940833 2.862097 0
M  V30 3 C 0.142288 -3.182017 2.097548 0
M  V30 4 C 0.814367 -2.742347 0.798253 0
M  V30 5 C 0.760230 -1.283541 0.572717 0
M  V30 6 N 0.564809 -0.854328 -0.718334 0
M  V30 7 C 0.509174 0.491680 -0.960066 0
M  V30 8 N 0.329908 1.149281 -2.206732 0
M  V30 9 C -0.989261 0.795393 -2.682845 0
M  V30 10 C -1.312285 1.497233 -3.973605 0
M  V30 11 O -0.399468 1.154334 -4.946166 0
M  V30 12 N 0.644132 1.382202 0.039635 0
M  V30 13 C 0.837472 1.043723 1.323189 0
M  V30 14 C 1.001995 1.834035 2.540642 0
M  V30 15 F 0.024472 1.579875 3.449340 0
M  V30 16 F 2.192728 1.432924 3.166747 0
M  V30 17 F 1.177786 3.165954 2.236921 0
M  V30 18 C 0.890822 -0.316101 1.559463 0
M  V30 19 C 1.073399 -1.086181 2.849344 0
M  V30 20 H -1.789493 -2.575831 4.055610 0
M  V30 21 H -0.956986 -1.120521 4.629076 0
M  V30 22 H -0.195346 -2.799848 4.897294 0
M  V30 23 H -1.010000 -1.440998 2.278567 0
M  V30 24 H 0.880844 -3.754124 2.700317 0
M  V30 25 H -0.748044 -3.797035 1.894501 0
M  V30 26 H 0.328545 -3.303057 -0.041684 0
M  V30 27 H 1.903092 -3.001528 0.840935 0
M  V30 28 H 1.102928 1.758325 -2.594641 0
M  V30 29 H -1.774597 1.008449 -1.931897 0
M  V30 30 H -1.022593 -0.324159 -2.809167 0
M  V30 31 H -2.317520 1.104780 -4.315310 0
M  V30 32 H -1.404201 2.583355 -3.776009 0
M  V30 33 H 0.501866 1.025117 -4.529024 0
M  V30 34 H 1.087859 -0.463052 3.733895 0
M  V30 35 H 1.977825 -1.739325 2.757820 0
M  V30 END ATOM
M  V30 BEGIN BOND
M  V30 1 1 1 2
M  V30 2 1 2 3
M  V30 3 1 3 4
M  V30 4 1 4 5
M  V30 5 2 5 6
M  V30 6 1 6 7
M  V30 7 1 7 8
M  V30 8 1 8 9
M  V30 9 1 9 10
M  V30 10 1 10 11
M  V30 11 2 7 12
M  V30 12 1 12 13
M  V30 13 1 13 14
M  V30 14 1 14 15
M  V30 15 1 14 16
M  V30 16 1 14 17
M  V30 17 2 13 18
M  V30 18 1 18 19
M  V30 19 1 19 2
M  V30 20 1 18 5
M  V30 21 1 1 20
M  V30 22 1 1 21
M  V30 23 1 1 22
M  V30 24 1 2 23
M  V30 25 1 3 24
M  V30 26 1 3 25
M  V30 27 1 4 26
M  V30 28 1 4 27
M  V30 29 1 8 28
M  V30 30 1 9 29
M  V30 31 1 9 30
M  V30 32 1 10 31
M  V30 33 1 10 32
M  V30 34 1 11 33
M  V30 35 1 19 34
M  V30 36 1 19 35
M  V30 END BOND
M  V30 END CTAB
M  END
>  <Dataset>  (539) 
ChEMBL_Kinases

>  <Ligand_Instance>  (539) 
nan

>  <PDB_ID>  (539) 
nan

>  <Standardized_SMILES>  (539) 
CC1CCc2nc(NCCO)nc(C(F)(F)F)c2C1

>  <Name>  (539) 
nan

>  <Pocket>  (539) 
nan

>  <ATP_Site>  (539) 
nan

>  <Peripheral>  (539) 
nan

>  <Num_H_Atoms_ProtBoundConf>  (539) 
nan

>  <Num_Resolved_Atoms>  (539) 
nan

>  <Num_Not_Resolved_Atoms>  (539) 
nan

$$$$
CHEMBL1426773
     RDKit          3D

  0  0  0  0  0  0  0  0  0  0999 V3000
M  V30 BEGIN CTAB
M  V30 COUNTS 68 71 0 0 0
M  V30 BEGIN ATOM
M  V30 1 C 6.783892 -3.387213 4.315913 0
M  V30 2 C 7.102115 -1.940765 4.104104 0
M  V30 3 C 6.122528 -1.272779 3.133555 0
M  V30 4 C 4.757352 -1.393072 3.719751 0
M  V30 5 O 3.718253 -0.844266 2.985542 0
M  V30 6 C 3.547834 0.455401 2.598288 0
M  V30 7 O 4.480379 1.227096 2.978068 0
M  V30 8 C 2.398718 0.934588 1.815124 0
M  V30 9 C 1.371901 0.117502 1.385598 0
M  V30 10 C 0.317175 0.629623 0.655501 0
M  V30 11 C 0.298152 1.991992 0.352928 0
M  V30 12 N -0.787983 2.562110 -0.407225 0
M  V30 13 C -1.877350 3.022611 0.421113 0
M  V30 14 O -2.218165 2.799876 1.633665 0
M  V30 15 C -2.704225 3.936948 -0.417011 0
M  V30 16 C -2.596674 3.277655 -1.761749 0
M  V30 17 N -3.530848 2.221316 -1.952909 0
M  V30 18 C -3.434904 1.118070 -1.056395 0
M  V30 19 C -4.154147 -0.071874 -1.669537 0
M  V30 20 N -3.403760 -0.570569 -2.795200 0
M  V30 21 C -2.266579 -1.366748 -2.459158 0
M  V30 22 C -2.566298 -2.670387 -1.849019 0
M  V30 23 C -2.135696 -2.998375 -0.643441 0
M  V30 24 C -2.354449 -4.243337 0.078626 0
M  V30 25 C -1.822375 -4.432982 1.355721 0
M  V30 26 C -2.066412 -5.642953 1.989826 0
M  V30 27 C -2.803958 -6.679677 1.441917 0
M  V30 28 C -3.319210 -6.466717 0.177796 0
M  V30 29 C -3.088617 -5.268499 -0.472981 0
M  V30 30 C -2.993940 0.504703 -3.648241 0
M  V30 31 C -3.664722 1.803147 -3.305195 0
M  V30 32 C -1.166664 2.837410 -1.762565 0
M  V30 33 O -0.213261 2.640257 -2.586618 0
M  V30 34 C 1.326807 2.815182 0.782027 0
M  V30 35 C 2.375280 2.291450 1.511234 0
M  V30 36 H 5.971313 -3.506952 5.087938 0
M  V30 37 H 6.567614 -3.958795 3.396279 0
M  V30 38 H 7.685745 -3.858065 4.777361 0
M  V30 39 H 6.958029 -1.432831 5.087248 0
M  V30 40 H 8.134599 -1.826278 3.763737 0
M  V30 41 H 6.133933 -1.807907 2.145709 0
M  V30 42 H 6.459554 -0.236859 3.002137 0
M  V30 43 H 4.550856 -2.502837 3.803049 0
M  V30 44 H 4.826046 -1.062328 4.776356 0
M  V30 45 H 1.406384 -0.930432 1.629944 0
M  V30 46 H -0.461850 -0.026899 0.337752 0
M  V30 47 H -2.147546 4.907005 -0.440952 0
M  V30 48 H -3.713873 4.097344 -0.044817 0
M  V30 49 H -2.794147 4.050322 -2.530770 0
M  V30 50 H -3.967786 1.304048 -0.078402 0
M  V30 51 H -2.383754 0.851491 -0.786979 0
M  V30 52 H -4.354832 -0.852546 -0.909161 0
M  V30 53 H -5.127536 0.305574 -2.044969 0
M  V30 54 H -1.590584 -0.803779 -1.775274 0
M  V30 55 H -1.675559 -1.496823 -3.408961 0
M  V30 56 H -3.151896 -3.428912 -2.350164 0
M  V30 57 H -1.541669 -2.215800 -0.147683 0
M  V30 58 H -1.234722 -3.663674 1.846411 0
M  V30 59 H -1.638953 -5.753682 2.975688 0
M  V30 60 H -2.969454 -7.593066 1.961161 0
M  V30 61 H -3.895426 -7.293274 -0.235062 0
M  V30 62 H -3.531776 -5.207591 -1.444571 0
M  V30 63 H -1.901831 0.574407 -3.666471 0
M  V30 64 H -3.314033 0.230068 -4.682043 0
M  V30 65 H -3.270829 2.554517 -4.025627 0
M  V30 66 H -4.760486 1.662234 -3.525016 0
M  V30 67 H 1.300859 3.877126 0.539663 0
M  V30 68 H 3.186240 2.927606 1.852203 0
M  V30 END ATOM
M  V30 BEGIN BOND
M  V30 1 1 1 2
M  V30 2 1 2 3
M  V30 3 1 3 4
M  V30 4 1 4 5
M  V30 5 1 5 6
M  V30 6 2 6 7
M  V30 7 1 6 8
M  V30 8 2 8 9
M  V30 9 1 9 10
M  V30 10 2 10 11
M  V30 11 1 11 12
M  V30 12 1 12 13
M  V30 13 2 13 14
M  V30 14 1 13 15
M  V30 15 1 15 16
M  V30 16 1 16 17
M  V30 17 1 17 18
M  V30 18 1 18 19
M  V30 19 1 19 20
M  V30 20 1 20 21
M  V30 21 1 21 22
M  V30 22 2 22 23
M  V30 23 1 23 24
M  V30 24 2 24 25
M  V30 25 1 25 26
M  V30 26 2 26 27
M  V30 27 1 27 28
M  V30 28 2 28 29
M  V30 29 1 20 30
M  V30 30 1 30 31
M  V30 31 1 16 32
M  V30 32 2 32 33
M  V30 33 1 11 34
M  V30 34 2 34 35
M  V30 35 1 35 8
M  V30 36 1 32 12
M  V30 37 1 31 17
M  V30 38 1 29 24
M  V30 39 1 1 36
M  V30 40 1 1 37
M  V30 41 1 1 38
M  V30 42 1 2 39
M  V30 43 1 2 40
M  V30 44 1 3 41
M  V30 45 1 3 42
M  V30 46 1 4 43
M  V30 47 1 4 44
M  V30 48 1 9 45
M  V30 49 1 10 46
M  V30 50 1 15 47
M  V30 51 1 15 48
M  V30 52 1 16 49
M  V30 53 1 18 50
M  V30 54 1 18 51
M  V30 55 1 19 52
M  V30 56 1 19 53
M  V30 57 1 21 54
M  V30 58 1 21 55
M  V30 59 1 22 56
M  V30 60 1 23 57
M  V30 61 1 25 58
M  V30 62 1 26 59
M  V30 63 1 27 60
M  V30 64 1 28 61
M  V30 65 1 29 62
M  V30 66 1 30 63
M  V30 67 1 30 64
M  V30 68 1 31 65
M  V30 69 1 31 66
M  V30 70 1 34 67
M  V30 71 1 35 68
M  V30 END BOND
M  V30 END CTAB
M  END
>  <Dataset>  (540) 
ChEMBL_Kinases

>  <Ligand_Instance>  (540) 
nan

>  <PDB_ID>  (540) 
nan

>  <Standardized_SMILES>  (540) 
CCCCOC(=O)c1ccc(N2C(=O)CC(N3CCN(C/C=C/c4ccccc4)CC3)C2=O)cc1

>  <Name>  (540) 
nan

>  <Pocket>  (540) 
nan

>  <ATP_Site>  (540) 
nan

>  <Peripheral>  (540) 
nan

>  <Num_H_Atoms_ProtBoundConf>  (540) 
nan

>  <Num_Resolved_Atoms>  (540) 
nan

>  <Num_Not_Resolved_Atoms>  (540) 
nan

$$$$
CHEMBL1426762
     RDKit          3D

  0  0  0  0  0  0  0  0  0  0999 V3000
M  V30 BEGIN CTAB
M  V30 COUNTS 34 36 0 0 0
M  V30 BEGIN ATOM
M  V30 1 O -0.944422 0.649625 -0.955450 0
M  V30 2 C -0.946753 0.012844 0.119863 0
M  V30 3 N -0.454350 -1.216802 0.600001 0
M  V30 4 C 0.281561 -2.247140 -0.042921 0
M  V30 5 C -0.385129 -3.296081 -0.685262 0
M  V30 6 C 0.330639 -4.306820 -1.313785 0
M  V30 7 C 1.701790 -4.274227 -1.303567 0
M  V30 8 C 2.408013 -3.257153 -0.681313 0
M  V30 9 C 3.778317 -3.315626 -0.728453 0
M  V30 10 C 4.507055 -2.298521 -0.106662 0
M  V30 11 C 3.768614 -1.288013 0.522840 0
M  V30 12 C 2.395455 -1.281303 0.537749 0
M  V30 13 C 1.651458 -2.277752 -0.071771 0
M  V30 14 O -1.615198 0.708865 1.100860 0
M  V30 15 C -2.229300 1.972482 0.939733 0
M  V30 16 C -3.657592 2.010491 1.206074 0
M  V30 17 C -4.043888 2.567094 2.311315 0
M  V30 18 S -2.618905 3.121635 3.164978 0
M  V30 19 O -2.187283 2.168085 4.237103 0
M  V30 20 O -2.760676 4.493021 3.704748 0
M  V30 21 C -1.533855 3.043780 1.735043 0
M  V30 22 H -0.561216 -1.585425 1.563162 0
M  V30 23 H -1.477761 -3.356314 -0.716370 0
M  V30 24 H -0.224563 -5.109849 -1.804728 0
M  V30 25 H 2.251694 -5.081321 -1.806544 0
M  V30 26 H 4.306587 -4.106007 -1.220943 0
M  V30 27 H 5.583625 -2.332578 -0.137237 0
M  V30 28 H 4.420183 -0.550543 0.973179 0
M  V30 29 H 1.890627 -0.471870 1.040749 0
M  V30 30 H -2.067665 2.262693 -0.124593 0
M  V30 31 H -4.378970 1.580472 0.493014 0
M  V30 32 H -5.059215 2.686003 2.671930 0
M  V30 33 H -0.499951 2.804875 2.006881 0
M  V30 34 H -1.630533 4.027897 1.228617 0
M  V30 END ATOM
M  V30 BEGIN BOND
M  V30 1 2 1 2
M  V30 2 1 2 3
M  V30 3 1 3 4
M  V30 4 2 4 5
M  V30 5 1 5 6
M  V30 6 2 6 7
M  V30 7 1 7 8
M  V30 8 2 8 9
M  V30 9 1 9 10
M  V30 10 2 10 11
M  V30 11 1 11 12
M  V30 12 2 12 13
M  V30 13 1 2 14
M  V30 14 1 14 15
M  V30 15 1 15 16
M  V30 16 2 16 17
M  V30 17 1 17 18
M  V30 18 2 18 19
M  V30 19 2 18 20
M  V30 20 1 18 21
M  V30 21 1 13 4
M  V30 22 1 21 15
M  V30 23 1 13 8
M  V30 24 1 3 22
M  V30 25 1 5 23
M  V30 26 1 6 24
M  V30 27 1 7 25
M  V30 28 1 9 26
M  V30 29 1 10 27
M  V30 30 1 11 28
M  V30 31 1 12 29
M  V30 32 1 15 30
M  V30 33 1 16 31
M  V30 34 1 17 32
M  V30 35 1 21 33
M  V30 36 1 21 34
M  V30 END BOND
M  V30 END CTAB
M  END
>  <Dataset>  (541) 
ChEMBL_Kinases

>  <Ligand_Instance>  (541) 
nan

>  <PDB_ID>  (541) 
nan

>  <Standardized_SMILES>  (541) 
O=C(Nc1cccc2ccccc12)OC1C=CS(=O)(=O)C1

>  <Name>  (541) 
nan

>  <Pocket>  (541) 
nan

>  <ATP_Site>  (541) 
nan

>  <Peripheral>  (541) 
nan

>  <Num_H_Atoms_ProtBoundConf>  (541) 
nan

>  <Num_Resolved_Atoms>  (541) 
nan

>  <Num_Not_Resolved_Atoms>  (541) 
nan

$$$$
CHEMBL1426597
     RDKit          3D

  0  0  0  0  0  0  0  0  0  0999 V3000
M  V30 BEGIN CTAB
M  V30 COUNTS 37 39 0 0 0
M  V30 BEGIN ATOM
M  V30 1 C 1.328625 -4.736708 0.036502 0
M  V30 2 N 1.615879 -3.564616 0.852562 0
M  V30 3 C 1.939633 -3.665483 2.148035 0
M  V30 4 O 1.981693 -4.827881 2.620017 0
M  V30 5 N 2.196670 -2.555021 2.861955 0
M  V30 6 C 2.125852 -1.357503 2.267944 0
M  V30 7 O 2.382864 -0.401041 3.022847 0
M  V30 8 C 1.793186 -1.188632 0.919443 0
M  V30 9 C 1.543108 -2.367921 0.251104 0
M  V30 10 N 1.251755 -1.974453 -0.993283 0
M  V30 11 C 1.327716 -0.633311 -1.049446 0
M  V30 12 N 1.670005 -0.067206 0.141682 0
M  V30 13 C 1.919109 1.221407 0.641920 0
M  V30 14 C 0.890820 2.006734 1.318755 0
M  V30 15 C -0.352767 2.432545 0.678335 0
M  V30 16 C -1.304889 1.466628 0.174460 0
M  V30 17 C -1.516529 0.946473 -1.084224 0
M  V30 18 C -2.468906 0.015051 -1.427967 0
M  V30 19 C -3.304101 -0.459953 -0.439367 0
M  V30 20 C -3.176927 -0.005749 0.851363 0
M  V30 21 C -2.198324 0.927819 1.116037 0
M  V30 22 H 1.890960 -5.613514 0.371599 0
M  V30 23 H 1.571433 -4.536241 -1.019031 0
M  V30 24 H 0.218686 -4.918927 0.109512 0
M  V30 25 H 2.443743 -2.691118 3.866243 0
M  V30 26 H 1.154309 0.024530 -1.906043 0
M  V30 27 H 2.817003 1.136056 1.338259 0
M  V30 28 H 2.281213 1.836994 -0.250593 0
M  V30 29 H 0.594546 1.562566 2.328402 0
M  V30 30 H 1.410263 2.975747 1.656259 0
M  V30 31 H -0.160235 3.223818 -0.136433 0
M  V30 32 H -0.930739 3.071764 1.427897 0
M  V30 33 H -0.831512 1.357552 -1.821422 0
M  V30 34 H -2.485962 -0.274229 -2.462944 0
M  V30 35 H -4.036306 -1.189555 -0.754610 0
M  V30 36 H -3.830185 -0.377507 1.623603 0
M  V30 37 H -2.154044 1.244459 2.163600 0
M  V30 END ATOM
M  V30 BEGIN BOND
M  V30 1 1 1 2
M  V30 2 1 2 3
M  V30 3 2 3 4
M  V30 4 1 3 5
M  V30 5 1 5 6
M  V30 6 2 6 7
M  V30 7 1 6 8
M  V30 8 2 8 9
M  V30 9 1 9 10
M  V30 10 2 10 11
M  V30 11 1 11 12
M  V30 12 1 12 13
M  V30 13 1 13 14
M  V30 14 1 14 15
M  V30 15 1 15 16
M  V30 16 2 16 17
M  V30 17 1 17 18
M  V30 18 2 18 19
M  V30 19 1 19 20
M  V30 20 2 20 21
M  V30 21 1 9 2
M  V30 22 1 21 16
M  V30 23 1 12 8
M  V30 24 1 1 22
M  V30 25 1 1 23
M  V30 26 1 1 24
M  V30 27 1 5 25
M  V30 28 1 11 26
M  V30 29 1 13 27
M  V30 30 1 13 28
M  V30 31 1 14 29
M  V30 32 1 14 30
M  V30 33 1 15 31
M  V30 34 1 15 32
M  V30 35 1 17 33
M  V30 36 1 18 34
M  V30 37 1 19 35
M  V30 38 1 20 36
M  V30 39 1 21 37
M  V30 END BOND
M  V30 END CTAB
M  END
>  <Dataset>  (542) 
ChEMBL_Kinases

>  <Ligand_Instance>  (542) 
nan

>  <PDB_ID>  (542) 
nan

>  <Standardized_SMILES>  (542) 
Cn1c(=O)[nH]c(=O)c2c1ncn2CCCc1ccccc1

>  <Name>  (542) 
nan

>  <Pocket>  (542) 
nan

>  <ATP_Site>  (542) 
nan

>  <Peripheral>  (542) 
nan

>  <Num_H_Atoms_ProtBoundConf>  (542) 
nan

>  <Num_Resolved_Atoms>  (542) 
nan

>  <Num_Not_Resolved_Atoms>  (542) 
nan

$$$$
CHEMBL1426566
     RDKit          3D

  0  0  0  0  0  0  0  0  0  0999 V3000
M  V30 BEGIN CTAB
M  V30 COUNTS 57 60 0 0 0
M  V30 BEGIN ATOM
M  V30 1 C 2.723409 0.085812 7.803991 0
M  V30 2 C 2.583537 -1.256696 7.144382 0
M  V30 3 O 2.349645 -1.178252 5.759394 0
M  V30 4 C 3.267449 -0.577007 4.935370 0
M  V30 5 C 4.468141 0.005118 5.240164 0
M  V30 6 C 5.304935 0.576784 4.329605 0
M  V30 7 C 4.915850 0.569622 3.000045 0
M  V30 8 C 3.715352 -0.006692 2.654094 0
M  V30 9 C 3.390875 0.021600 1.313712 0
M  V30 10 C 2.195279 -0.544707 0.917757 0
M  V30 11 C 1.683805 -0.615361 -0.442762 0
M  V30 12 O 2.151122 -1.701776 -0.863257 0
M  V30 13 N 0.856989 0.323819 -1.119272 0
M  V30 14 C 0.283825 1.605450 -0.677470 0
M  V30 15 C -1.134472 1.755410 -1.130462 0
M  V30 16 N -1.752367 0.572219 -1.590387 0
M  V30 17 C -3.154932 0.530554 -1.696441 0
M  V30 18 C -3.543455 -0.816331 -2.197176 0
M  V30 19 C -4.195181 -1.104235 -3.288246 0
M  V30 20 C -4.543692 -2.452188 -3.719413 0
M  V30 21 C -4.223780 -3.594451 -3.020417 0
M  V30 22 C -4.551566 -4.871673 -3.424161 0
M  V30 23 C -5.247694 -5.051752 -4.605037 0
M  V30 24 C -5.584754 -3.915789 -5.332945 0
M  V30 25 C -5.237497 -2.653437 -4.893742 0
M  V30 26 C -1.005120 -0.268637 -2.449319 0
M  V30 27 C 0.469564 0.034396 -2.485087 0
M  V30 28 C 1.389929 -1.111595 1.908194 0
M  V30 29 O 0.278104 -1.655541 1.656820 0
M  V30 30 O 1.776637 -1.094202 3.159262 0
M  V30 31 C 2.879744 -0.583604 3.606755 0
M  V30 32 H 1.881418 0.266878 8.521627 0
M  V30 33 H 3.657694 0.163325 8.398781 0
M  V30 34 H 2.683141 0.918250 7.074262 0
M  V30 35 H 1.757419 -1.835307 7.643194 0
M  V30 36 H 3.533879 -1.824696 7.292656 0
M  V30 37 H 4.733800 -0.012117 6.272915 0
M  V30 38 H 6.240682 1.010301 4.706052 0
M  V30 39 H 5.565687 1.016347 2.277808 0
M  V30 40 H 3.997320 0.453569 0.533859 0
M  V30 41 H 0.884897 2.460393 -1.012211 0
M  V30 42 H 0.308049 1.537811 0.435663 0
M  V30 43 H -1.721423 2.180581 -0.290988 0
M  V30 44 H -1.160719 2.504016 -1.949592 0
M  V30 45 H -3.504061 1.336465 -2.373450 0
M  V30 46 H -3.645153 0.618566 -0.692749 0
M  V30 47 H -3.222692 -1.613000 -1.540829 0
M  V30 48 H -4.485651 -0.266158 -3.897918 0
M  V30 49 H -3.681823 -3.512901 -2.093264 0
M  V30 50 H -4.255580 -5.731228 -2.802413 0
M  V30 51 H -5.522160 -6.037072 -4.954679 0
M  V30 52 H -6.120408 -4.013831 -6.246790 0
M  V30 53 H -5.528743 -1.809489 -5.505615 0
M  V30 54 H -1.117449 -1.324786 -2.125497 0
M  V30 55 H -1.399534 -0.199706 -3.474515 0
M  V30 56 H 0.595158 0.951551 -3.126138 0
M  V30 57 H 1.078584 -0.778373 -2.873033 0
M  V30 END ATOM
M  V30 BEGIN BOND
M  V30 1 1 1 2
M  V30 2 1 2 3
M  V30 3 1 3 4
M  V30 4 2 4 5
M  V30 5 1 5 6
M  V30 6 2 6 7
M  V30 7 1 7 8
M  V30 8 1 8 9
M  V30 9 2 9 10
M  V30 10 1 10 11
M  V30 11 2 11 12
M  V30 12 1 11 13
M  V30 13 1 13 14
M  V30 14 1 14 15
M  V30 15 1 15 16
M  V30 16 1 16 17
M  V30 17 1 17 18
M  V30 18 2 18 19
M  V30 19 1 19 20
M  V30 20 2 20 21
M  V30 21 1 21 22
M  V30 22 2 22 23
M  V30 23 1 23 24
M  V30 24 2 24 25
M  V30 25 1 16 26
M  V30 26 1 26 27
M  V30 27 1 10 28
M  V30 28 2 28 29
M  V30 29 1 28 30
M  V30 30 1 30 31
M  V30 31 1 31 4
M  V30 32 2 31 8
M  V30 33 1 27 13
M  V30 34 1 25 20
M  V30 35 1 1 32
M  V30 36 1 1 33
M  V30 37 1 1 34
M  V30 38 1 2 35
M  V30 39 1 2 36
M  V30 40 1 5 37
M  V30 41 1 6 38
M  V30 42 1 7 39
M  V30 43 1 9 40
M  V30 44 1 14 41
M  V30 45 1 14 42
M  V30 46 1 15 43
M  V30 47 1 15 44
M  V30 48 1 17 45
M  V30 49 1 17 46
M  V30 50 1 18 47
M  V30 51 1 19 48
M  V30 52 1 21 49
M  V30 53 1 22 50
M  V30 54 1 23 51
M  V30 55 1 24 52
M  V30 56 1 25 53
M  V30 57 1 26 54
M  V30 58 1 26 55
M  V30 59 1 27 56
M  V30 60 1 27 57
M  V30 END BOND
M  V30 END CTAB
M  END
>  <Dataset>  (543) 
ChEMBL_Kinases

>  <Ligand_Instance>  (543) 
nan

>  <PDB_ID>  (543) 
nan

>  <Standardized_SMILES>  (543) 
CCOc1cccc2cc(C(=O)N3CCN(C/C=C/c4ccccc4)CC3)c(=O)oc12

>  <Name>  (543) 
nan

>  <Pocket>  (543) 
nan

>  <ATP_Site>  (543) 
nan

>  <Peripheral>  (543) 
nan

>  <Num_H_Atoms_ProtBoundConf>  (543) 
nan

>  <Num_Resolved_Atoms>  (543) 
nan

>  <Num_Not_Resolved_Atoms>  (543) 
nan

$$$$
CHEMBL1426506
     RDKit          3D

  0  0  0  0  0  0  0  0  0  0999 V3000
M  V30 BEGIN CTAB
M  V30 COUNTS 43 45 0 0 0
M  V30 BEGIN ATOM
M  V30 1 C -0.610866 -4.232949 2.819413 0
M  V30 2 O 0.472125 -4.534618 1.964442 0
M  V30 3 C 0.619474 -3.830360 0.762221 0
M  V30 4 C 1.671801 -4.121879 -0.071412 0
M  V30 5 C 1.907007 -3.490144 -1.273356 0
M  V30 6 C 1.009825 -2.497339 -1.647590 0
M  V30 7 O 1.113840 -1.769251 -2.834357 0
M  V30 8 C 2.199629 -2.057667 -3.711353 0
M  V30 9 C -0.052754 -2.218921 -0.782191 0
M  V30 10 N -0.963245 -1.198614 -1.174703 0
M  V30 11 C -0.435825 -0.005409 -0.635761 0
M  V30 12 O 0.553105 0.409100 0.057549 0
M  V30 13 C -0.800124 1.458813 -0.610376 0
M  V30 14 C 0.241582 2.205100 0.176652 0
M  V30 15 C 1.320505 3.036472 -0.155399 0
M  V30 16 O 1.902097 3.415006 0.957605 0
M  V30 17 C 1.332321 2.928738 2.012990 0
M  V30 18 C 1.645555 3.092878 3.354754 0
M  V30 19 C 0.845475 2.440923 4.270366 0
M  V30 20 C -0.222168 1.656973 3.885881 0
M  V30 21 C -1.123530 0.929700 4.807281 0
M  V30 22 C -0.503296 1.518008 2.521966 0
M  V30 23 C 0.275533 2.155527 1.576987 0
M  V30 24 C -0.276342 -2.859351 0.418538 0
M  V30 25 H -0.620296 -4.957226 3.652443 0
M  V30 26 H -0.550216 -3.214672 3.240304 0
M  V30 27 H -1.560625 -4.318009 2.240379 0
M  V30 28 H 2.401257 -4.890331 0.176243 0
M  V30 29 H 2.732263 -3.716728 -1.929293 0
M  V30 30 H 1.921032 -1.638765 -4.714022 0
M  V30 31 H 3.129425 -1.527584 -3.402758 0
M  V30 32 H 2.337261 -3.142747 -3.844145 0
M  V30 33 H -1.830163 -0.901977 -1.666341 0
M  V30 34 H -1.780777 1.561391 -0.142123 0
M  V30 35 H -0.743924 1.805388 -1.648322 0
M  V30 36 H 1.485260 3.217421 -1.208198 0
M  V30 37 H 2.484728 3.706963 3.693147 0
M  V30 38 H 1.043891 2.534043 5.328846 0
M  V30 39 H -0.942826 -0.140561 4.889093 0
M  V30 40 H -2.169973 1.101011 4.484293 0
M  V30 41 H -1.026819 1.385153 5.832797 0
M  V30 42 H -1.332714 0.911034 2.185752 0
M  V30 43 H -1.123541 -2.583920 1.030546 0
M  V30 END ATOM
M  V30 BEGIN BOND
M  V30 1 1 1 2
M  V30 2 1 2 3
M  V30 3 2 3 4
M  V30 4 1 4 5
M  V30 5 2 5 6
M  V30 6 1 6 7
M  V30 7 1 7 8
M  V30 8 1 6 9
M  V30 9 1 9 10
M  V30 10 1 10 11
M  V30 11 2 11 12
M  V30 12 1 11 13
M  V30 13 1 13 14
M  V30 14 2 14 15
M  V30 15 1 15 16
M  V30 16 1 16 17
M  V30 17 2 17 18
M  V30 18 1 18 19
M  V30 19 2 19 20
M  V30 20 1 20 21
M  V30 21 1 20 22
M  V30 22 2 22 23
M  V30 23 2 9 24
M  V30 24 1 24 3
M  V30 25 1 23 14
M  V30 26 1 23 17
M  V30 27 1 1 25
M  V30 28 1 1 26
M  V30 29 1 1 27
M  V30 30 1 4 28
M  V30 31 1 5 29
M  V30 32 1 8 30
M  V30 33 1 8 31
M  V30 34 1 8 32
M  V30 35 1 10 33
M  V30 36 1 13 34
M  V30 37 1 13 35
M  V30 38 1 15 36
M  V30 39 1 18 37
M  V30 40 1 19 38
M  V30 41 1 21 39
M  V30 42 1 21 40
M  V30 43 1 21 41
M  V30 44 1 22 42
M  V30 45 1 24 43
M  V30 END BOND
M  V30 END CTAB
M  END
>  <Dataset>  (544) 
ChEMBL_Kinases

>  <Ligand_Instance>  (544) 
nan

>  <PDB_ID>  (544) 
nan

>  <Standardized_SMILES>  (544) 
COc1ccc(OC)c(NC(=O)Cc2coc3ccc(C)cc23)c1

>  <Name>  (544) 
nan

>  <Pocket>  (544) 
nan

>  <ATP_Site>  (544) 
nan

>  <Peripheral>  (544) 
nan

>  <Num_H_Atoms_ProtBoundConf>  (544) 
nan

>  <Num_Resolved_Atoms>  (544) 
nan

>  <Num_Not_Resolved_Atoms>  (544) 
nan

$$$$
CHEMBL142648
     RDKit          3D

  0  0  0  0  0  0  0  0  0  0999 V3000
M  V30 BEGIN CTAB
M  V30 COUNTS 34 36 0 0 0
M  V30 BEGIN ATOM
M  V30 1 C -0.561376 -1.969529 3.088571 0
M  V30 2 C -0.808835 -2.536437 1.716777 0
M  V30 3 N 0.382168 -2.881728 0.995118 0
M  V30 4 C 0.894918 -4.128211 1.116960 0
M  V30 5 O 0.330615 -4.989246 1.862556 0
M  V30 6 C 2.021499 -4.553035 0.473052 0
M  V30 7 C 2.623009 -3.587427 -0.340535 0
M  V30 8 C 2.109413 -2.317362 -0.471058 0
M  V30 9 C 2.709816 -1.374049 -1.275061 0
M  V30 10 N 2.185424 -0.145340 -1.381518 0
M  V30 11 C 1.071600 0.223992 -0.724937 0
M  V30 12 N 0.560574 1.540148 -0.875469 0
M  V30 13 C -0.583353 2.137103 -0.286902 0
M  V30 14 C -0.933627 3.441574 -0.548629 0
M  V30 15 C -2.019105 4.050536 -0.006884 0
M  V30 16 C -2.841272 3.372966 0.852147 0
M  V30 17 C -2.557337 2.069609 1.161209 0
M  V30 18 C -1.444866 1.506670 0.581892 0
M  V30 19 N 0.533384 -0.734888 0.040420 0
M  V30 20 C 0.971795 -1.965329 0.209474 0
M  V30 21 H 0.163156 -2.570344 3.644344 0
M  V30 22 H -1.532352 -2.056707 3.651919 0
M  V30 23 H -0.331223 -0.887852 3.095671 0
M  V30 24 H -1.397079 -3.482569 1.908043 0
M  V30 25 H -1.509445 -1.890665 1.164715 0
M  V30 26 H 2.441211 -5.538865 0.559207 0
M  V30 27 H 3.532998 -3.835723 -0.898014 0
M  V30 28 H 3.608302 -1.600049 -1.833041 0
M  V30 29 H 1.108213 2.179824 -1.521834 0
M  V30 30 H -0.312952 4.032882 -1.228564 0
M  V30 31 H -2.238879 5.084351 -0.255959 0
M  V30 32 H -3.702695 3.855659 1.282288 0
M  V30 33 H -3.202837 1.528143 1.839400 0
M  V30 34 H -1.272468 0.478414 0.862887 0
M  V30 END ATOM
M  V30 BEGIN BOND
M  V30 1 1 1 2
M  V30 2 1 2 3
M  V30 3 1 3 4
M  V30 4 2 4 5
M  V30 5 1 4 6
M  V30 6 2 6 7
M  V30 7 1 7 8
M  V30 8 2 8 9
M  V30 9 1 9 10
M  V30 10 2 10 11
M  V30 11 1 11 12
M  V30 12 1 12 13
M  V30 13 2 13 14
M  V30 14 1 14 15
M  V30 15 2 15 16
M  V30 16 1 16 17
M  V30 17 2 17 18
M  V30 18 1 11 19
M  V30 19 2 19 20
M  V30 20 1 20 3
M  V30 21 1 20 8
M  V30 22 1 18 13
M  V30 23 1 1 21
M  V30 24 1 1 22
M  V30 25 1 1 23
M  V30 26 1 2 24
M  V30 27 1 2 25
M  V30 28 1 6 26
M  V30 29 1 7 27
M  V30 30 1 9 28
M  V30 31 1 12 29
M  V30 32 1 14 30
M  V30 33 1 15 31
M  V30 34 1 16 32
M  V30 35 1 17 33
M  V30 36 1 18 34
M  V30 END BOND
M  V30 END CTAB
M  END
>  <Dataset>  (545) 
ChEMBL_Kinases

>  <Ligand_Instance>  (545) 
nan

>  <PDB_ID>  (545) 
nan

>  <Standardized_SMILES>  (545) 
CCn1c(=O)ccc2cnc(Nc3ccccc3)nc21

>  <Name>  (545) 
nan

>  <Pocket>  (545) 
nan

>  <ATP_Site>  (545) 
nan

>  <Peripheral>  (545) 
nan

>  <Num_H_Atoms_ProtBoundConf>  (545) 
nan

>  <Num_Resolved_Atoms>  (545) 
nan

>  <Num_Not_Resolved_Atoms>  (545) 
nan

$$$$
CHEMBL1426468
     RDKit          3D

  0  0  0  0  0  0  0  0  0  0999 V3000
M  V30 BEGIN CTAB
M  V30 COUNTS 33 34 0 0 0
M  V30 BEGIN ATOM
M  V30 1 C 0.954718 0.154849 3.951635 0
M  V30 2 O 1.588262 -0.415593 2.813789 0
M  V30 3 C 2.970258 -0.456503 2.698219 0
M  V30 4 O 3.766644 -0.006762 3.562374 0
M  V30 5 C 3.532438 -1.041445 1.533678 0
M  V30 6 S 5.305290 -1.138320 1.298087 0
M  V30 7 C 5.144564 -1.995861 -0.384131 0
M  V30 8 C 3.711776 -2.116083 -0.584097 0
M  V30 9 C 2.923330 -1.618145 0.415123 0
M  V30 10 N 1.504884 -1.658329 0.372201 0
M  V30 11 C 0.917367 -0.535038 -0.224621 0
M  V30 12 O 1.771921 0.323248 -0.622429 0
M  V30 13 C -0.520845 -0.342456 -0.386674 0
M  V30 14 C -1.451214 -1.276958 0.046452 0
M  V30 15 C -2.791146 -1.011994 -0.148003 0
M  V30 16 C -3.208111 0.152730 -0.758266 0
M  V30 17 O -4.517094 0.538637 -1.012776 0
M  V30 18 C -5.616205 -0.266734 -0.652792 0
M  V30 19 C -2.287714 1.098776 -1.197700 0
M  V30 20 C -0.931996 0.836788 -1.004051 0
M  V30 21 H 0.782981 1.233583 3.747540 0
M  V30 22 H 1.541039 0.048379 4.870198 0
M  V30 23 H -0.045316 -0.304459 4.104130 0
M  V30 24 H 5.869587 -2.386163 -1.170080 0
M  V30 25 H 3.342726 -2.577185 -1.481432 0
M  V30 26 H 0.887793 -2.429394 0.736317 0
M  V30 27 H -1.125530 -2.181542 0.520505 0
M  V30 28 H -3.569501 -1.686175 0.159682 0
M  V30 29 H -5.963484 -0.089471 0.389404 0
M  V30 30 H -6.467236 -0.094099 -1.357228 0
M  V30 31 H -5.357117 -1.336271 -0.777040 0
M  V30 32 H -2.540261 2.041449 -1.687823 0
M  V30 33 H -0.181828 1.554470 -1.335086 0
M  V30 END ATOM
M  V30 BEGIN BOND
M  V30 1 1 1 2
M  V30 2 1 2 3
M  V30 3 2 3 4
M  V30 4 1 3 5
M  V30 5 1 5 6
M  V30 6 1 6 7
M  V30 7 2 7 8
M  V30 8 1 8 9
M  V30 9 1 9 10
M  V30 10 1 10 11
M  V30 11 2 11 12
M  V30 12 1 11 13
M  V30 13 2 13 14
M  V30 14 1 14 15
M  V30 15 2 15 16
M  V30 16 1 16 17
M  V30 17 1 17 18
M  V30 18 1 16 19
M  V30 19 2 19 20
M  V30 20 2 9 5
M  V30 21 1 20 13
M  V30 22 1 1 21
M  V30 23 1 1 22
M  V30 24 1 1 23
M  V30 25 1 7 24
M  V30 26 1 8 25
M  V30 27 1 10 26
M  V30 28 1 14 27
M  V30 29 1 15 28
M  V30 30 1 18 29
M  V30 31 1 18 30
M  V30 32 1 18 31
M  V30 33 1 19 32
M  V30 34 1 20 33
M  V30 END BOND
M  V30 END CTAB
M  END
>  <Dataset>  (546) 
ChEMBL_Kinases

>  <Ligand_Instance>  (546) 
nan

>  <PDB_ID>  (546) 
nan

>  <Standardized_SMILES>  (546) 
COC(=O)c1sccc1NC(=O)c1ccc(OC)cc1

>  <Name>  (546) 
nan

>  <Pocket>  (546) 
nan

>  <ATP_Site>  (546) 
nan

>  <Peripheral>  (546) 
nan

>  <Num_H_Atoms_ProtBoundConf>  (546) 
nan

>  <Num_Resolved_Atoms>  (546) 
nan

>  <Num_Not_Resolved_Atoms>  (546) 
nan

$$$$
CHEMBL1426406
     RDKit          3D

  0  0  0  0  0  0  0  0  0  0999 V3000
M  V30 BEGIN CTAB
M  V30 COUNTS 22 23 0 0 0
M  V30 BEGIN ATOM
M  V30 1 N 2.886167 1.536398 4.521603 0
M  V30 2 N 2.141283 1.086958 3.456854 0
M  V30 3 C 1.296157 -0.024813 3.182736 0
M  V30 4 O 1.072879 -0.914739 4.035473 0
M  V30 5 C 0.679245 -0.115028 1.863296 0
M  V30 6 C -0.148617 -1.152252 1.514256 0
M  V30 7 C -0.538051 -0.898474 0.199197 0
M  V30 8 C -1.348870 -1.541530 -0.721157 0
M  V30 9 C -1.554137 -1.033873 -1.994489 0
M  V30 10 C -0.934760 0.147500 -2.362334 0
M  V30 11 C -0.115573 0.814097 -1.458711 0
M  V30 12 C 0.068945 0.283493 -0.198858 0
M  V30 13 N 0.801677 0.733161 0.836822 0
M  V30 14 H 2.335741 1.917609 5.296197 0
M  V30 15 H 3.637334 0.877975 4.747629 0
M  V30 16 H 2.362132 1.865061 2.771902 0
M  V30 17 H -0.454212 -1.995405 2.099623 0
M  V30 18 H -1.823866 -2.471268 -0.402199 0
M  V30 19 H -2.200719 -1.556846 -2.712640 0
M  V30 20 H -1.058460 0.588199 -3.338795 0
M  V30 21 H 0.388678 1.739370 -1.701531 0
M  V30 22 H 1.393553 1.606827 0.881382 0
M  V30 END ATOM
M  V30 BEGIN BOND
M  V30 1 1 1 2
M  V30 2 1 2 3
M  V30 3 2 3 4
M  V30 4 1 3 5
M  V30 5 2 5 6
M  V30 6 1 6 7
M  V30 7 2 7 8
M  V30 8 1 8 9
M  V30 9 2 9 10
M  V30 10 1 10 11
M  V30 11 2 11 12
M  V30 12 1 12 13
M  V30 13 1 13 5
M  V30 14 1 12 7
M  V30 15 1 1 14
M  V30 16 1 1 15
M  V30 17 1 2 16
M  V30 18 1 6 17
M  V30 19 1 8 18
M  V30 20 1 9 19
M  V30 21 1 10 20
M  V30 22 1 11 21
M  V30 23 1 13 22
M  V30 END BOND
M  V30 END CTAB
M  END
>  <Dataset>  (547) 
ChEMBL_Kinases

>  <Ligand_Instance>  (547) 
nan

>  <PDB_ID>  (547) 
nan

>  <Standardized_SMILES>  (547) 
NNC(=O)c1cc2ccccc2[nH]1

>  <Name>  (547) 
nan

>  <Pocket>  (547) 
nan

>  <ATP_Site>  (547) 
nan

>  <Peripheral>  (547) 
nan

>  <Num_H_Atoms_ProtBoundConf>  (547) 
nan

>  <Num_Resolved_Atoms>  (547) 
nan

>  <Num_Not_Resolved_Atoms>  (547) 
nan

$$$$
CHEMBL142635
     RDKit          3D

  0  0  0  0  0  0  0  0  0  0999 V3000
M  V30 BEGIN CTAB
M  V30 COUNTS 57 60 0 0 0
M  V30 BEGIN ATOM
M  V30 1 C 1.625890 -4.707155 0.532695 0
M  V30 2 O 1.651455 -3.291655 0.631766 0
M  V30 3 C 2.589939 -2.698715 1.465894 0
M  V30 4 C 3.505153 -3.455644 2.205338 0
M  V30 5 C 4.443123 -2.841198 3.040264 0
M  V30 6 C 4.479078 -1.466184 3.147187 0
M  V30 7 C 3.581772 -0.699793 2.423538 0
M  V30 8 C 2.656056 -1.329008 1.598308 0
M  V30 9 N 1.777669 -0.457875 0.896638 0
M  V30 10 C 0.306341 -0.347777 0.904107 0
M  V30 11 C 0.023862 1.144225 1.044493 0
M  V30 12 N 0.425880 1.778864 -0.135577 0
M  V30 13 C -0.273414 2.785706 -0.754997 0
M  V30 14 C -1.546615 2.600761 -1.477347 0
M  V30 15 O -1.853370 3.954383 -1.929308 0
M  V30 16 C -2.761287 2.200245 -0.738271 0
M  V30 17 O -2.811000 0.904076 -0.262083 0
M  V30 18 C -2.781656 -0.295329 -0.873527 0
M  V30 19 C -2.693499 -0.704855 -2.183067 0
M  V30 20 C -2.676327 -2.002377 -2.635620 0
M  V30 21 C -2.754722 -3.009563 -1.699944 0
M  V30 22 C -2.846090 -2.678042 -0.364925 0
M  V30 23 C -2.923250 -3.746340 0.498927 0
M  V30 24 C -3.019282 -3.509672 1.836220 0
M  V30 25 C -3.038955 -2.218360 2.317809 0
M  V30 26 C -2.959345 -1.189161 1.417534 0
M  V30 27 C -2.859994 -1.346796 0.050735 0
M  V30 28 C 1.372124 1.040312 -0.936031 0
M  V30 29 C 2.419652 0.499923 0.016600 0
M  V30 30 H 1.598008 -5.065835 1.602633 0
M  V30 31 H 0.693112 -5.009901 0.016213 0
M  V30 32 H 2.533645 -5.106612 0.041119 0
M  V30 33 H 3.503517 -4.518069 2.145173 0
M  V30 34 H 5.154408 -3.413204 3.616146 0
M  V30 35 H 5.186936 -0.918603 3.782490 0
M  V30 36 H 3.619878 0.384259 2.515665 0
M  V30 37 H -0.114688 -0.883480 1.770740 0
M  V30 38 H -0.040635 -0.722030 -0.078939 0
M  V30 39 H 0.788620 1.466978 1.841540 0
M  V30 40 H -0.927071 1.389023 1.495447 0
M  V30 41 H 0.434424 3.273106 -1.515965 0
M  V30 42 H -0.394689 3.636075 -0.013470 0
M  V30 43 H -1.424596 2.047602 -2.406790 0
M  V30 44 H -1.760800 4.518723 -1.104313 0
M  V30 45 H -3.697113 2.336241 -1.376348 0
M  V30 46 H -2.983821 2.867311 0.137598 0
M  V30 47 H -2.641687 0.110356 -2.884351 0
M  V30 48 H -2.602461 -2.163667 -3.698940 0
M  V30 49 H -2.737812 -4.009700 -2.099190 0
M  V30 50 H -2.912437 -4.775383 0.178957 0
M  V30 51 H -3.082835 -4.323338 2.556665 0
M  V30 52 H -3.114376 -1.962248 3.375472 0
M  V30 53 H -2.974771 -0.160610 1.799133 0
M  V30 54 H 1.919026 1.823731 -1.537683 0
M  V30 55 H 0.927435 0.277535 -1.591601 0
M  V30 56 H 2.762267 1.400117 0.607866 0
M  V30 57 H 3.291342 0.074878 -0.521531 0
M  V30 END ATOM
M  V30 BEGIN BOND
M  V30 1 1 1 2
M  V30 2 1 2 3
M  V30 3 2 3 4
M  V30 4 1 4 5
M  V30 5 2 5 6
M  V30 6 1 6 7
M  V30 7 2 7 8
M  V30 8 1 8 9
M  V30 9 1 9 10
M  V30 10 1 10 11
M  V30 11 1 11 12
M  V30 12 1 12 13
M  V30 13 1 13 14
M  V30 14 1 14 15
M  V30 15 1 14 16
M  V30 16 1 16 17
M  V30 17 1 17 18
M  V30 18 2 18 19
M  V30 19 1 19 20
M  V30 20 2 20 21
M  V30 21 1 21 22
M  V30 22 2 22 23
M  V30 23 1 23 24
M  V30 24 2 24 25
M  V30 25 1 25 26
M  V30 26 2 26 27
M  V30 27 1 12 28
M  V30 28 1 28 29
M  V30 29 1 8 3
M  V30 30 1 29 9
M  V30 31 1 27 18
M  V30 32 1 27 22
M  V30 33 1 1 30
M  V30 34 1 1 31
M  V30 35 1 1 32
M  V30 36 1 4 33
M  V30 37 1 5 34
M  V30 38 1 6 35
M  V30 39 1 7 36
M  V30 40 1 10 37
M  V30 41 1 10 38
M  V30 42 1 11 39
M  V30 43 1 11 40
M  V30 44 1 13 41
M  V30 45 1 13 42
M  V30 46 1 14 43
M  V30 47 1 15 44
M  V30 48 1 16 45
M  V30 49 1 16 46
M  V30 50 1 19 47
M  V30 51 1 20 48
M  V30 52 1 21 49
M  V30 53 1 23 50
M  V30 54 1 24 51
M  V30 55 1 25 52
M  V30 56 1 26 53
M  V30 57 1 28 54
M  V30 58 1 28 55
M  V30 59 1 29 56
M  V30 60 1 29 57
M  V30 END BOND
M  V30 END CTAB
M  END
>  <Dataset>  (548) 
ChEMBL_Kinases

>  <Ligand_Instance>  (548) 
nan

>  <PDB_ID>  (548) 
nan

>  <Standardized_SMILES>  (548) 
COc1ccccc1N1CCN(CC(O)COc2cccc3ccccc23)CC1

>  <Name>  (548) 
NAFTOPIDIL

>  <Pocket>  (548) 
nan

>  <ATP_Site>  (548) 
nan

>  <Peripheral>  (548) 
nan

>  <Num_H_Atoms_ProtBoundConf>  (548) 
nan

>  <Num_Resolved_Atoms>  (548) 
nan

>  <Num_Not_Resolved_Atoms>  (548) 
nan

$$$$
CHEMBL1426347
     RDKit          3D

  0  0  0  0  0  0  0  0  0  0999 V3000
M  V30 BEGIN CTAB
M  V30 COUNTS 28 28 0 0 0
M  V30 BEGIN ATOM
M  V30 1 C 1.369141 -0.008476 4.715431 0
M  V30 2 O 1.600953 -1.351582 4.269647 0
M  V30 3 C 1.338343 -1.711389 2.954693 0
M  V30 4 C 1.607988 -3.039041 2.663212 0
M  V30 5 C 1.376537 -3.491197 1.373656 0
M  V30 6 C 0.884264 -2.615410 0.408357 0
M  V30 7 C 0.634173 -1.289168 0.770469 0
M  V30 8 O 0.153146 -0.498899 -0.236128 0
M  V30 9 C -0.184988 0.850651 -0.175711 0
M  V30 10 C -0.670034 1.248987 -1.576100 0
M  V30 11 O 0.335931 1.043621 -2.512940 0
M  V30 12 C -1.863008 0.378311 -1.917023 0
M  V30 13 O -1.461018 -0.949355 -1.895913 0
M  V30 14 C 0.852094 -0.803142 2.042965 0
M  V30 15 H 1.315326 0.046103 5.803412 0
M  V30 16 H 0.361393 0.298867 4.326248 0
M  V30 17 H 2.081212 0.693149 4.234979 0
M  V30 18 H 1.986360 -3.757671 3.361229 0
M  V30 19 H 1.564087 -4.515986 1.072840 0
M  V30 20 H 0.711687 -2.987552 -0.587063 0
M  V30 21 H 0.752934 1.431970 0.050004 0
M  V30 22 H -0.916617 1.137958 0.583744 0
M  V30 23 H -0.934379 2.318244 -1.546668 0
M  V30 24 H 0.605934 0.076873 -2.471572 0
M  V30 25 H -2.681889 0.534295 -1.189577 0
M  V30 26 H -2.180480 0.671301 -2.931638 0
M  V30 27 H -1.089141 -1.180227 -2.793222 0
M  V30 28 H 0.655655 0.215778 2.305276 0
M  V30 END ATOM
M  V30 BEGIN BOND
M  V30 1 1 1 2
M  V30 2 1 2 3
M  V30 3 2 3 4
M  V30 4 1 4 5
M  V30 5 2 5 6
M  V30 6 1 6 7
M  V30 7 1 7 8
M  V30 8 1 8 9
M  V30 9 1 9 10
M  V30 10 1 10 11
M  V30 11 1 10 12
M  V30 12 1 12 13
M  V30 13 2 7 14
M  V30 14 1 14 3
M  V30 15 1 1 15
M  V30 16 1 1 16
M  V30 17 1 1 17
M  V30 18 1 4 18
M  V30 19 1 5 19
M  V30 20 1 6 20
M  V30 21 1 9 21
M  V30 22 1 9 22
M  V30 23 1 10 23
M  V30 24 1 11 24
M  V30 25 1 12 25
M  V30 26 1 12 26
M  V30 27 1 13 27
M  V30 28 1 14 28
M  V30 END BOND
M  V30 END CTAB
M  END
>  <Dataset>  (549) 
ChEMBL_Kinases

>  <Ligand_Instance>  (549) 
nan

>  <PDB_ID>  (549) 
nan

>  <Standardized_SMILES>  (549) 
COc1cccc(OCC(O)CO)c1

>  <Name>  (549) 
nan

>  <Pocket>  (549) 
nan

>  <ATP_Site>  (549) 
nan

>  <Peripheral>  (549) 
nan

>  <Num_H_Atoms_ProtBoundConf>  (549) 
nan

>  <Num_Resolved_Atoms>  (549) 
nan

>  <Num_Not_Resolved_Atoms>  (549) 
nan

$$$$
CHEMBL1426216
     RDKit          3D

  0  0  0  0  0  0  0  0  0  0999 V3000
M  V30 BEGIN CTAB
M  V30 COUNTS 42 42 0 0 0
M  V30 BEGIN ATOM
M  V30 1 C 0.658927 -6.162828 2.129969 0
M  V30 2 O -0.628706 -5.768436 2.535470 0
M  V30 3 C -0.955945 -4.435546 2.504597 0
M  V30 4 C -0.036786 -3.511072 2.084119 0
M  V30 5 C -0.359218 -2.166364 2.050288 0
M  V30 6 N 0.496772 -1.098098 1.636202 0
M  V30 7 C 0.491398 -0.716903 0.247298 0
M  V30 8 O -0.265347 -1.339888 -0.539707 0
M  V30 9 N 1.336313 0.343667 -0.183378 0
M  V30 10 C 1.348451 0.746193 -1.579189 0 CFG=1
M  V30 11 C 0.819219 2.160567 -1.708340 0
M  V30 12 C 1.634003 3.156148 -0.940995 0
M  V30 13 S 3.355086 3.253631 -1.445080 0
M  V30 14 C 4.244635 4.490573 -0.448736 0
M  V30 15 C 2.700082 0.602348 -2.139554 0
M  V30 16 O 2.609538 0.975426 -3.353738 0
M  V30 17 O 3.966783 0.198013 -1.736433 0
M  V30 18 C -1.619517 -1.763237 2.445310 0
M  V30 19 C -2.526484 -2.690345 2.861829 0
M  V30 20 O -3.806878 -2.301910 3.265445 0
M  V30 21 C -4.234001 -0.969375 3.269392 0
M  V30 22 C -2.221460 -4.039499 2.902202 0
M  V30 23 H 0.898402 -5.705085 1.153122 0
M  V30 24 H 1.455932 -5.817271 2.848429 0
M  V30 25 H 0.744858 -7.265908 2.088546 0
M  V30 26 H 0.959789 -3.746509 1.762719 0
M  V30 27 H 1.124463 -0.585056 2.302210 0
M  V30 28 H 1.976330 0.873381 0.472285 0
M  V30 29 H 0.626778 0.090732 -2.110508 0
M  V30 30 H 0.709686 2.452321 -2.770102 0
M  V30 31 H -0.195640 2.180875 -1.258457 0
M  V30 32 H 1.179980 4.156680 -1.155137 0
M  V30 33 H 1.510273 3.015965 0.148793 0
M  V30 34 H 3.541628 4.890560 0.325104 0
M  V30 35 H 5.081606 4.058117 0.119799 0
M  V30 36 H 4.539457 5.329671 -1.113334 0
M  V30 37 H 4.787217 0.683127 -2.034365 0
M  V30 38 H -1.950798 -0.723431 2.447689 0
M  V30 39 H -5.234047 -0.952496 3.771920 0
M  V30 40 H -4.400579 -0.658985 2.202935 0
M  V30 41 H -3.508950 -0.296425 3.728211 0
M  V30 42 H -2.988359 -4.735872 3.244888 0
M  V30 END ATOM
M  V30 BEGIN BOND
M  V30 1 1 1 2
M  V30 2 1 2 3
M  V30 3 2 3 4
M  V30 4 1 4 5
M  V30 5 1 5 6
M  V30 6 1 6 7
M  V30 7 2 7 8
M  V30 8 1 7 9
M  V30 9 1 9 10
M  V30 10 1 10 11
M  V30 11 1 11 12
M  V30 12 1 12 13
M  V30 13 1 13 14
M  V30 14 1 10 15
M  V30 15 2 15 16
M  V30 16 1 15 17
M  V30 17 2 5 18
M  V30 18 1 18 19
M  V30 19 1 19 20
M  V30 20 1 20 21
M  V30 21 2 19 22
M  V30 22 1 22 3
M  V30 23 1 1 23
M  V30 24 1 1 24
M  V30 25 1 1 25
M  V30 26 1 4 26
M  V30 27 1 6 27
M  V30 28 1 9 28
M  V30 29 1 10 29 CFG=3
M  V30 30 1 11 30
M  V30 31 1 11 31
M  V30 32 1 12 32
M  V30 33 1 12 33
M  V30 34 1 14 34
M  V30 35 1 14 35
M  V30 36 1 14 36
M  V30 37 1 17 37
M  V30 38 1 18 38
M  V30 39 1 21 39
M  V30 40 1 21 40
M  V30 41 1 21 41
M  V30 42 1 22 42
M  V30 END BOND
M  V30 END CTAB
M  END
>  <Dataset>  (550) 
ChEMBL_Kinases

>  <Ligand_Instance>  (550) 
nan

>  <PDB_ID>  (550) 
nan

>  <Standardized_SMILES>  (550) 
COc1cc(NC(=O)N[C@@H](CCSC)C(=O)O)cc(OC)c1

>  <Name>  (550) 
nan

>  <Pocket>  (550) 
nan

>  <ATP_Site>  (550) 
nan

>  <Peripheral>  (550) 
nan

>  <Num_H_Atoms_ProtBoundConf>  (550) 
nan

>  <Num_Resolved_Atoms>  (550) 
nan

>  <Num_Not_Resolved_Atoms>  (550) 
nan

$$$$
CHEMBL1426203
     RDKit          3D

  0  0  0  0  0  0  0  0  0  0999 V3000
M  V30 BEGIN CTAB
M  V30 COUNTS 42 44 0 0 0
M  V30 BEGIN ATOM
M  V30 1 C 1.470306 -6.639659 0.787705 0
M  V30 2 C 1.705768 -5.210124 1.100370 0
M  V30 3 C 2.290329 -4.874041 2.314467 0
M  V30 4 C 2.530526 -3.550761 2.649971 0
M  V30 5 C 2.187852 -2.527652 1.770806 0
M  V30 6 N 2.407033 -1.133443 2.044250 0
M  V30 7 C 2.010332 -0.112123 1.113203 0
M  V30 8 N 2.799014 0.327755 0.098461 0
M  V30 9 C 2.345983 1.294479 -0.730508 0
M  V30 10 N 3.168341 1.756604 -1.796790 0
M  V30 11 C 1.086740 1.836300 -0.550205 0
M  V30 12 N 0.551306 2.849312 -1.379575 0 CHG=1 VAL=4
M  V30 13 O 0.147368 2.657674 -2.562709 0
M  V30 14 O 0.306390 4.195709 -1.245533 0 CHG=-1 VAL=1
M  V30 15 C 0.307010 1.371312 0.487969 0
M  V30 16 N -1.023887 1.841144 0.797710 0
M  V30 17 C -2.198776 1.783441 -0.080775 0
M  V30 18 C -2.999264 0.610110 0.499167 0
M  V30 19 O -3.018699 0.668841 1.866300 0
M  V30 20 C -2.768713 1.895815 2.429045 0
M  V30 21 C -1.389202 2.458526 2.086079 0
M  V30 22 N 0.765894 0.394339 1.324786 0
M  V30 23 C 1.601987 -2.849806 0.552643 0
M  V30 24 C 1.368155 -4.187667 0.232122 0
M  V30 25 H 0.726499 -7.053985 1.482359 0
M  V30 26 H 1.117047 -6.729043 -0.249488 0
M  V30 27 H 2.409282 -7.238877 0.870147 0
M  V30 28 H 2.577962 -5.616607 3.039047 0
M  V30 29 H 2.983441 -3.261202 3.587997 0
M  V30 30 H 2.860712 -0.823976 2.934288 0
M  V30 31 H 3.550857 1.315010 -2.680793 0
M  V30 32 H 3.382951 2.750263 -1.557747 0
M  V30 33 H -2.746685 2.724987 -0.042452 0
M  V30 34 H -1.906351 1.468587 -1.108034 0
M  V30 35 H -2.369620 -0.293437 0.243629 0
M  V30 36 H -3.984765 0.498554 0.014539 0
M  V30 37 H -2.788755 1.751340 3.527962 0
M  V30 38 H -3.579118 2.639302 2.226009 0
M  V30 39 H -0.697166 2.216115 2.887478 0
M  V30 40 H -1.548488 3.563814 1.938209 0
M  V30 41 H 1.314917 -2.096746 -0.169407 0
M  V30 42 H 0.910380 -4.462732 -0.720990 0
M  V30 END ATOM
M  V30 BEGIN BOND
M  V30 1 1 1 2
M  V30 2 2 2 3
M  V30 3 1 3 4
M  V30 4 2 4 5
M  V30 5 1 5 6
M  V30 6 1 6 7
M  V30 7 2 7 8
M  V30 8 1 8 9
M  V30 9 1 9 10
M  V30 10 2 9 11
M  V30 11 1 11 12
M  V30 12 2 12 13
M  V30 13 1 12 14
M  V30 14 1 11 15
M  V30 15 1 15 16
M  V30 16 1 16 17
M  V30 17 1 17 18
M  V30 18 1 18 19
M  V30 19 1 19 20
M  V30 20 1 20 21
M  V30 21 2 15 22
M  V30 22 1 5 23
M  V30 23 2 23 24
M  V30 24 1 24 2
M  V30 25 1 22 7
M  V30 26 1 21 16
M  V30 27 1 1 25
M  V30 28 1 1 26
M  V30 29 1 1 27
M  V30 30 1 3 28
M  V30 31 1 4 29
M  V30 32 1 6 30
M  V30 33 1 10 31
M  V30 34 1 10 32
M  V30 35 1 17 33
M  V30 36 1 17 34
M  V30 37 1 18 35
M  V30 38 1 18 36
M  V30 39 1 20 37
M  V30 40 1 20 38
M  V30 41 1 21 39
M  V30 42 1 21 40
M  V30 43 1 23 41
M  V30 44 1 24 42
M  V30 END BOND
M  V30 END CTAB
M  END
>  <Dataset>  (551) 
ChEMBL_Kinases

>  <Ligand_Instance>  (551) 
nan

>  <PDB_ID>  (551) 
nan

>  <Standardized_SMILES>  (551) 
Cc1ccc(Nc2nc(N)c([N+](=O)[O-])c(N3CCOCC3)n2)cc1

>  <Name>  (551) 
nan

>  <Pocket>  (551) 
nan

>  <ATP_Site>  (551) 
nan

>  <Peripheral>  (551) 
nan

>  <Num_H_Atoms_ProtBoundConf>  (551) 
nan

>  <Num_Resolved_Atoms>  (551) 
nan

>  <Num_Not_Resolved_Atoms>  (551) 
nan

$$$$
CHEMBL1426190
     RDKit          3D

  0  0  0  0  0  0  0  0  0  0999 V3000
M  V30 BEGIN CTAB
M  V30 COUNTS 43 45 0 0 0
M  V30 BEGIN ATOM
M  V30 1 C -0.885951 -3.670670 0.496953 0
M  V30 2 O -0.740571 -2.404345 -0.081373 0
M  V30 3 C 0.474660 -1.880709 -0.447680 0
M  V30 4 C 1.592118 -2.659630 -0.224846 0
M  V30 5 C 2.807063 -2.127656 -0.595418 0
M  V30 6 C 2.941851 -0.877906 -1.165654 0
M  V30 7 C 4.255836 -0.323929 -1.556672 0
M  V30 8 C 5.440058 -1.203876 -1.293704 0
M  V30 9 O 4.277517 0.812323 -2.065633 0
M  V30 10 C 1.774210 -0.161184 -1.355211 0
M  V30 11 C 0.515993 -0.628058 -1.008755 0
M  V30 12 C -0.668198 0.232325 -1.256165 0
M  V30 13 N -1.067113 0.803889 0.030305 0
M  V30 14 C -0.528034 2.061931 0.493675 0
M  V30 15 O 0.311391 2.778366 -0.126533 0
M  V30 16 N -1.117567 2.338825 1.771254 0
M  V30 17 C -1.433644 1.012838 2.276419 0
M  V30 18 C -0.202822 0.319307 2.809094 0
M  V30 19 C -0.601545 -0.390836 4.072381 0
M  V30 20 C -2.120988 -0.322881 4.096479 0
M  V30 21 C -2.368501 1.008869 3.436961 0
M  V30 22 C -1.974505 0.356870 1.053304 0
M  V30 23 O -2.929536 -0.404952 0.756515 0
M  V30 24 H -1.961026 -3.850811 0.650202 0
M  V30 25 H -0.364561 -3.746319 1.489347 0
M  V30 26 H -0.432467 -4.463389 -0.136657 0
M  V30 27 H 1.520992 -3.646916 0.221954 0
M  V30 28 H 3.702357 -2.722310 -0.430371 0
M  V30 29 H 5.393048 -2.046562 -2.003791 0
M  V30 30 H 6.390911 -0.654121 -1.435093 0
M  V30 31 H 5.389394 -1.588996 -0.271498 0
M  V30 32 H 1.878701 0.826106 -1.805234 0
M  V30 33 H -1.495684 -0.416924 -1.603712 0
M  V30 34 H -0.414473 1.033805 -1.955424 0
M  V30 35 H -1.205577 3.346019 2.079691 0
M  V30 36 H 0.166851 -0.385718 2.043486 0
M  V30 37 H 0.579308 1.089777 2.958365 0
M  V30 38 H -0.172898 0.171543 4.920758 0
M  V30 39 H -0.217010 -1.433779 4.064718 0
M  V30 40 H -2.544831 -1.166643 3.546083 0
M  V30 41 H -2.507318 -0.347702 5.135390 0
M  V30 42 H -3.432855 1.150027 3.156805 0
M  V30 43 H -2.049617 1.804620 4.148075 0
M  V30 END ATOM
M  V30 BEGIN BOND
M  V30 1 1 1 2
M  V30 2 1 2 3
M  V30 3 2 3 4
M  V30 4 1 4 5
M  V30 5 2 5 6
M  V30 6 1 6 7
M  V30 7 1 7 8
M  V30 8 2 7 9
M  V30 9 1 6 10
M  V30 10 2 10 11
M  V30 11 1 11 12
M  V30 12 1 12 13
M  V30 13 1 13 14
M  V30 14 2 14 15
M  V30 15 1 14 16
M  V30 16 1 16 17
M  V30 17 1 17 18
M  V30 18 1 18 19
M  V30 19 1 19 20
M  V30 20 1 20 21
M  V30 21 1 17 22
M  V30 22 2 22 23
M  V30 23 1 11 3
M  V30 24 1 22 13
M  V30 25 1 21 17
M  V30 26 1 1 24
M  V30 27 1 1 25
M  V30 28 1 1 26
M  V30 29 1 4 27
M  V30 30 1 5 28
M  V30 31 1 8 29
M  V30 32 1 8 30
M  V30 33 1 8 31
M  V30 34 1 10 32
M  V30 35 1 12 33
M  V30 36 1 12 34
M  V30 37 1 16 35
M  V30 38 1 18 36
M  V30 39 1 18 37
M  V30 40 1 19 38
M  V30 41 1 19 39
M  V30 42 1 20 40
M  V30 43 1 20 41
M  V30 44 1 21 42
M  V30 45 1 21 43
M  V30 END BOND
M  V30 END CTAB
M  END
>  <Dataset>  (552) 
ChEMBL_Kinases

>  <Ligand_Instance>  (552) 
nan

>  <PDB_ID>  (552) 
nan

>  <Standardized_SMILES>  (552) 
COc1ccc(C(C)=O)cc1CN1C(=O)NC2(CCCC2)C1=O

>  <Name>  (552) 
nan

>  <Pocket>  (552) 
nan

>  <ATP_Site>  (552) 
nan

>  <Peripheral>  (552) 
nan

>  <Num_H_Atoms_ProtBoundConf>  (552) 
nan

>  <Num_Resolved_Atoms>  (552) 
nan

>  <Num_Not_Resolved_Atoms>  (552) 
nan

$$$$
CHEMBL1426098
     RDKit          3D

  0  0  0  0  0  0  0  0  0  0999 V3000
M  V30 BEGIN CTAB
M  V30 COUNTS 28 29 0 0 0
M  V30 BEGIN ATOM
M  V30 1 N -1.124850 0.829839 2.965078 0
M  V30 2 C -0.945241 -0.041651 2.237167 0
M  V30 3 C -0.714076 -1.143635 1.303867 0
M  V30 4 C 0.286709 -0.925018 0.484799 0
M  V30 5 C 1.221842 0.165702 0.299119 0
M  V30 6 C 1.887873 0.724908 1.395035 0
M  V30 7 C 2.813138 1.759848 1.272453 0
M  V30 8 C 3.082558 2.256138 0.021409 0
M  V30 9 N 4.030652 3.309984 -0.112073 0 CHG=1 VAL=4
M  V30 10 O 4.288124 3.781441 -1.250299 0
M  V30 11 O 4.755110 3.924393 0.881320 0 CHG=-1 VAL=1
M  V30 12 C 2.461259 1.750110 -1.094860 0
M  V30 13 C 1.557288 0.729846 -0.937637 0
M  V30 14 C -1.501345 -2.378207 1.284243 0
M  V30 15 C -2.537320 -2.543911 2.148128 0
M  V30 16 C -3.257763 -3.748430 2.081437 0
M  V30 17 C -2.770408 -4.615470 1.094320 0
M  V30 18 C -1.729619 -4.461504 0.217939 0
M  V30 19 N -1.061540 -3.265552 0.328728 0
M  V30 20 H 0.559130 -1.669260 -0.258427 0
M  V30 21 H 1.616171 0.279514 2.336443 0
M  V30 22 H 3.248259 2.093372 2.196790 0
M  V30 23 H 2.668049 2.136984 -2.096023 0
M  V30 24 H 1.048229 0.313237 -1.819847 0
M  V30 25 H -2.785255 -1.766055 2.853767 0
M  V30 26 H -4.082241 -3.945369 2.723663 0
M  V30 27 H -3.327087 -5.567867 1.027105 0
M  V30 28 H -1.482043 -5.236375 -0.481034 0
M  V30 END ATOM
M  V30 BEGIN BOND
M  V30 1 3 1 2
M  V30 2 1 2 3
M  V30 3 2 3 4
M  V30 4 1 4 5
M  V30 5 2 5 6
M  V30 6 1 6 7
M  V30 7 2 7 8
M  V30 8 1 8 9
M  V30 9 2 9 10
M  V30 10 1 9 11
M  V30 11 1 8 12
M  V30 12 2 12 13
M  V30 13 1 3 14
M  V30 14 2 14 15
M  V30 15 1 15 16
M  V30 16 2 16 17
M  V30 17 1 17 18
M  V30 18 2 18 19
M  V30 19 1 13 5
M  V30 20 1 19 14
M  V30 21 1 4 20
M  V30 22 1 6 21
M  V30 23 1 7 22
M  V30 24 1 12 23
M  V30 25 1 13 24
M  V30 26 1 15 25
M  V30 27 1 16 26
M  V30 28 1 17 27
M  V30 29 1 18 28
M  V30 END BOND
M  V30 END CTAB
M  END
>  <Dataset>  (553) 
ChEMBL_Kinases

>  <Ligand_Instance>  (553) 
nan

>  <PDB_ID>  (553) 
nan

>  <Standardized_SMILES>  (553) 
N#C/C(=C\c1ccc([N+](=O)[O-])cc1)c1ccccn1

>  <Name>  (553) 
nan

>  <Pocket>  (553) 
nan

>  <ATP_Site>  (553) 
nan

>  <Peripheral>  (553) 
nan

>  <Num_H_Atoms_ProtBoundConf>  (553) 
nan

>  <Num_Resolved_Atoms>  (553) 
nan

>  <Num_Not_Resolved_Atoms>  (553) 
nan

$$$$
CHEMBL1441865
     RDKit          3D

  0  0  0  0  0  0  0  0  0  0999 V3000
M  V30 BEGIN CTAB
M  V30 COUNTS 36 37 0 0 0
M  V30 BEGIN ATOM
M  V30 1 C -1.989300 -1.395201 2.211041 0
M  V30 2 C -1.151356 -2.307513 1.347965 0
M  V30 3 N -0.784672 -1.658949 0.099103 0
M  V30 4 C 0.016421 -2.412502 -0.825059 0
M  V30 5 C 1.289654 -2.761006 -0.144504 0
M  V30 6 C 1.528358 -3.897203 0.601317 0
M  V30 7 C 2.766182 -4.094304 1.181166 0
M  V30 8 N 3.766118 -3.179503 1.029534 0
M  V30 9 C 3.544964 -2.051508 0.295058 0
M  V30 10 C 2.318312 -1.839939 -0.288944 0
M  V30 11 C -1.192617 -0.350748 -0.198654 0
M  V30 12 S -2.762604 -0.178614 -1.031459 0
M  V30 13 N -0.119188 0.168964 0.329749 0
M  V30 14 C 0.092576 1.574806 0.350082 0
M  V30 15 C -1.034162 2.359715 0.487560 0
M  V30 16 C -0.805057 3.733378 0.505254 0
M  V30 17 C 0.496347 4.234651 0.388383 0
M  V30 18 C 1.595365 3.381249 0.251673 0
M  V30 19 C 1.396975 2.002504 0.230713 0
M  V30 20 H -1.541889 -1.179393 3.189249 0
M  V30 21 H -2.181701 -0.462855 1.650865 0
M  V30 22 H -2.998117 -1.840076 2.412537 0
M  V30 23 H -0.272320 -2.586027 1.966618 0
M  V30 24 H -1.709340 -3.234068 1.105088 0
M  V30 25 H -0.522714 -3.377114 -1.031641 0
M  V30 26 H 0.171634 -1.924486 -1.795248 0
M  V30 27 H 0.717843 -4.588451 0.695214 0
M  V30 28 H 2.963188 -4.984963 1.769517 0
M  V30 29 H 4.359063 -1.321656 0.180236 0
M  V30 30 H 2.218016 -0.925239 -0.854800 0
M  V30 31 H -3.758779 0.313332 -0.189379 0
M  V30 32 H -2.014152 1.913737 0.573558 0
M  V30 33 H -1.644654 4.391362 0.609821 0
M  V30 34 H 0.644938 5.312170 0.405439 0
M  V30 35 H 2.606216 3.748979 0.160223 0
M  V30 36 H 2.204116 1.289596 0.127708 0
M  V30 END ATOM
M  V30 BEGIN BOND
M  V30 1 1 1 2
M  V30 2 1 2 3
M  V30 3 1 3 4
M  V30 4 1 4 5
M  V30 5 2 5 6
M  V30 6 1 6 7
M  V30 7 2 7 8
M  V30 8 1 8 9
M  V30 9 2 9 10
M  V30 10 1 3 11
M  V30 11 1 11 12
M  V30 12 2 11 13 CFG=2
M  V30 13 1 13 14
M  V30 14 2 14 15
M  V30 15 1 15 16
M  V30 16 2 16 17
M  V30 17 1 17 18
M  V30 18 2 18 19
M  V30 19 1 10 5
M  V30 20 1 19 14
M  V30 21 1 1 20
M  V30 22 1 1 21
M  V30 23 1 1 22
M  V30 24 1 2 23
M  V30 25 1 2 24
M  V30 26 1 4 25
M  V30 27 1 4 26
M  V30 28 1 6 27
M  V30 29 1 7 28
M  V30 30 1 9 29
M  V30 31 1 10 30
M  V30 32 1 12 31
M  V30 33 1 15 32
M  V30 34 1 16 33
M  V30 35 1 17 34
M  V30 36 1 18 35
M  V30 37 1 19 36
M  V30 END BOND
M  V30 END CTAB
M  END
>  <Dataset>  (554) 
ChEMBL_Kinases

>  <Ligand_Instance>  (554) 
nan

>  <PDB_ID>  (554) 
nan

>  <Standardized_SMILES>  (554) 
CCN(Cc1ccncc1)C(S)=Nc1ccccc1

>  <Name>  (554) 
nan

>  <Pocket>  (554) 
nan

>  <ATP_Site>  (554) 
nan

>  <Peripheral>  (554) 
nan

>  <Num_H_Atoms_ProtBoundConf>  (554) 
nan

>  <Num_Resolved_Atoms>  (554) 
nan

>  <Num_Not_Resolved_Atoms>  (554) 
nan

$$$$
CHEMBL142425
     RDKit          3D

  0  0  0  0  0  0  0  0  0  0999 V3000
M  V30 BEGIN CTAB
M  V30 COUNTS 46 49 0 0 0
M  V30 BEGIN ATOM
M  V30 1 C 1.498991 -2.392504 4.467940 0
M  V30 2 C 0.913858 -3.638935 3.795495 0 CFG=2
M  V30 3 O 0.367992 -4.432501 4.836856 0
M  V30 4 C 1.933869 -4.391208 3.001554 0
M  V30 5 N 2.523393 -3.654501 1.906536 0
M  V30 6 C 1.751435 -3.145604 0.806944 0
M  V30 7 C 1.511675 -1.808839 0.654847 0
M  V30 8 C 0.776603 -1.182857 -0.370023 0
M  V30 9 C 0.725845 0.254359 -0.240029 0
M  V30 10 N 1.866280 0.996631 -0.073665 0
M  V30 11 C 1.554473 2.272150 0.043717 0
M  V30 12 C 2.387686 3.387010 0.227970 0
M  V30 13 C 1.818231 4.633610 0.320889 0
M  V30 14 C 0.431231 4.742987 0.226996 0
M  V30 15 N -0.346256 3.655133 0.048904 0
M  V30 16 C 0.167123 2.430011 -0.045411 0
M  V30 17 C -0.287481 1.136227 -0.221783 0
M  V30 18 C -1.715775 0.912937 -0.387083 0
M  V30 19 C -1.965972 0.810741 -1.762765 0
M  V30 20 C -3.248780 0.607264 -2.274712 0
M  V30 21 C -4.307170 0.501383 -1.376754 0
M  V30 22 F -5.577522 0.305051 -1.793678 0
M  V30 23 C -4.039862 0.601621 -0.023226 0
M  V30 24 C -2.792293 0.800625 0.465862 0
M  V30 25 C 0.260617 -2.055385 -1.296331 0
M  V30 26 C 0.502119 -3.405447 -1.143678 0
M  V30 27 N 1.208885 -3.939797 -0.148955 0
M  V30 28 H 2.126360 -2.660644 5.349720 0
M  V30 29 H 2.047520 -1.774133 3.747935 0
M  V30 30 H 0.632131 -1.817659 4.831446 0
M  V30 31 H 0.040882 -3.302232 3.220233 0
M  V30 32 H 0.021082 -5.260359 4.417519 0
M  V30 33 H 1.418190 -5.316523 2.597445 0
M  V30 34 H 2.764012 -4.674211 3.710035 0
M  V30 35 H 3.487542 -3.322858 1.615612 0
M  V30 36 H 1.970651 -1.200037 1.448981 0
M  V30 37 H 2.848930 0.605585 -0.041888 0
M  V30 38 H 3.467726 3.238355 0.296609 0
M  V30 39 H 2.462745 5.484908 0.461743 0
M  V30 40 H -0.030421 5.728438 0.296613 0
M  V30 41 H -1.269378 0.864952 -2.605792 0
M  V30 42 H -3.529748 0.518308 -3.311511 0
M  V30 43 H -4.806244 0.534059 0.723195 0
M  V30 44 H -2.437252 0.897989 1.478182 0
M  V30 45 H -0.302989 -1.547578 -2.069167 0
M  V30 46 H 0.057362 -4.042996 -1.925427 0
M  V30 END ATOM
M  V30 BEGIN BOND
M  V30 1 1 1 2
M  V30 2 1 2 3
M  V30 3 1 2 4
M  V30 4 1 4 5
M  V30 5 1 5 6
M  V30 6 2 6 7
M  V30 7 1 7 8
M  V30 8 1 8 9
M  V30 9 1 9 10
M  V30 10 1 10 11
M  V30 11 2 11 12
M  V30 12 1 12 13
M  V30 13 2 13 14
M  V30 14 1 14 15
M  V30 15 2 15 16
M  V30 16 1 16 17
M  V30 17 1 17 18
M  V30 18 2 18 19
M  V30 19 1 19 20
M  V30 20 2 20 21
M  V30 21 1 21 22
M  V30 22 1 21 23
M  V30 23 2 23 24
M  V30 24 2 8 25
M  V30 25 1 25 26
M  V30 26 2 26 27
M  V30 27 1 27 6
M  V30 28 2 17 9
M  V30 29 1 24 18
M  V30 30 1 16 11
M  V30 31 1 1 28
M  V30 32 1 1 29
M  V30 33 1 1 30
M  V30 34 1 2 31 CFG=3
M  V30 35 1 3 32
M  V30 36 1 4 33
M  V30 37 1 4 34
M  V30 38 1 5 35
M  V30 39 1 7 36
M  V30 40 1 10 37
M  V30 41 1 12 38
M  V30 42 1 13 39
M  V30 43 1 14 40
M  V30 44 1 19 41
M  V30 45 1 20 42
M  V30 46 1 23 43
M  V30 47 1 24 44
M  V30 48 1 25 45
M  V30 49 1 26 46
M  V30 END BOND
M  V30 END CTAB
M  END
>  <Dataset>  (555) 
ChEMBL_Kinases

>  <Ligand_Instance>  (555) 
nan

>  <PDB_ID>  (555) 
nan

>  <Standardized_SMILES>  (555) 
C[C@H](O)CNc1cc(-c2[nH]c3cccnc3c2-c2ccc(F)cc2)ccn1

>  <Name>  (555) 
nan

>  <Pocket>  (555) 
nan

>  <ATP_Site>  (555) 
nan

>  <Peripheral>  (555) 
nan

>  <Num_H_Atoms_ProtBoundConf>  (555) 
nan

>  <Num_Resolved_Atoms>  (555) 
nan

>  <Num_Not_Resolved_Atoms>  (555) 
nan

$$$$
CHEMBL1424250
     RDKit          3D

  0  0  0  0  0  0  0  0  0  0999 V3000
M  V30 BEGIN CTAB
M  V30 COUNTS 54 57 0 0 0
M  V30 BEGIN ATOM
M  V30 1 O 1.211226 -6.714611 2.341800 0
M  V30 2 C 1.060648 -5.651091 1.667146 0
M  V30 3 C 1.366271 -4.431478 2.484190 0
M  V30 4 O 1.174555 -3.315537 1.664182 0
M  V30 5 C 1.346474 -2.004962 2.021555 0
M  V30 6 O 1.706597 -2.048637 3.226163 0
M  V30 7 C 1.112936 -0.921494 1.067853 0
M  V30 8 C 0.717208 -1.216852 -0.199553 0
M  V30 9 C 0.518128 -0.138315 -1.037769 0
M  V30 10 C 0.699731 1.174284 -0.648576 0
M  V30 11 C 1.104450 1.389271 0.661865 0
M  V30 12 S 1.329740 3.072682 1.135741 0
M  V30 13 O 1.704194 3.936186 -0.023097 0
M  V30 14 O 2.315393 3.119866 2.252603 0
M  V30 15 N -0.205457 3.616517 1.747407 0
M  V30 16 C -0.850123 3.011497 2.921970 0
M  V30 17 C -2.323081 3.131699 2.548701 0
M  V30 18 C -2.362794 4.396137 1.765380 0
M  V30 19 C -3.326495 5.319334 1.412993 0
M  V30 20 C -3.030373 6.445159 0.637712 0
M  V30 21 C -1.719416 6.632990 0.212084 0
M  V30 22 C -0.737379 5.742055 0.539941 0
M  V30 23 C -1.073362 4.629484 1.316275 0
M  V30 24 C 1.325285 0.367744 1.563084 0
M  V30 25 N 0.659288 -5.565066 0.318256 0
M  V30 26 C 0.337835 -6.637057 -0.575555 0
M  V30 27 C 1.277154 -6.611234 -1.751031 0
M  V30 28 C 1.050706 -5.278973 -2.442605 0
M  V30 29 S -0.730279 -5.170920 -2.351725 0
M  V30 30 O -1.347654 -5.507245 -3.678922 0
M  V30 31 O -1.200141 -3.865187 -1.830352 0
M  V30 32 C -1.050159 -6.481651 -1.164242 0
M  V30 33 H 0.725907 -4.487702 3.371395 0
M  V30 34 H 2.412204 -4.507745 2.871323 0
M  V30 35 H 0.580931 -2.229430 -0.487112 0
M  V30 36 H 0.201454 -0.315364 -2.061670 0
M  V30 37 H 0.535944 2.001801 -1.328394 0
M  V30 38 H -0.512912 1.970701 3.032893 0
M  V30 39 H -0.676184 3.636488 3.838557 0
M  V30 40 H -2.976246 3.143675 3.434494 0
M  V30 41 H -2.650384 2.313840 1.898382 0
M  V30 42 H -4.328546 5.094228 1.789424 0
M  V30 43 H -3.853195 7.112806 0.412435 0
M  V30 44 H -1.583315 7.516401 -0.373648 0
M  V30 45 H 0.277633 5.916316 0.192332 0
M  V30 46 H 1.635474 0.555576 2.563644 0
M  V30 47 H 0.596053 -4.597159 -0.050271 0
M  V30 48 H 0.428063 -7.638395 -0.110834 0
M  V30 49 H 0.966516 -7.405957 -2.460491 0
M  V30 50 H 2.302628 -6.756361 -1.402719 0
M  V30 51 H 1.469753 -4.428722 -1.885878 0
M  V30 52 H 1.386416 -5.315473 -3.498434 0
M  V30 53 H -1.785812 -6.151086 -0.410555 0
M  V30 54 H -1.322528 -7.376490 -1.729648 0
M  V30 END ATOM
M  V30 BEGIN BOND
M  V30 1 2 1 2
M  V30 2 1 2 3
M  V30 3 1 3 4
M  V30 4 1 4 5
M  V30 5 2 5 6
M  V30 6 1 5 7
M  V30 7 2 7 8
M  V30 8 1 8 9
M  V30 9 2 9 10
M  V30 10 1 10 11
M  V30 11 1 11 12
M  V30 12 2 12 13
M  V30 13 2 12 14
M  V30 14 1 12 15
M  V30 15 1 15 16
M  V30 16 1 16 17
M  V30 17 1 17 18
M  V30 18 2 18 19
M  V30 19 1 19 20
M  V30 20 2 20 21
M  V30 21 1 21 22
M  V30 22 2 22 23
M  V30 23 2 11 24
M  V30 24 1 2 25
M  V30 25 1 25 26
M  V30 26 1 26 27
M  V30 27 1 27 28
M  V30 28 1 28 29
M  V30 29 2 29 30
M  V30 30 2 29 31
M  V30 31 1 29 32
M  V30 32 1 24 7
M  V30 33 1 32 26
M  V30 34 1 23 15
M  V30 35 1 23 18
M  V30 36 1 3 33
M  V30 37 1 3 34
M  V30 38 1 8 35
M  V30 39 1 9 36
M  V30 40 1 10 37
M  V30 41 1 16 38
M  V30 42 1 16 39
M  V30 43 1 17 40
M  V30 44 1 17 41
M  V30 45 1 19 42
M  V30 46 1 20 43
M  V30 47 1 21 44
M  V30 48 1 22 45
M  V30 49 1 24 46
M  V30 50 1 25 47
M  V30 51 1 26 48
M  V30 52 1 27 49
M  V30 53 1 27 50
M  V30 54 1 28 51
M  V30 55 1 28 52
M  V30 56 1 32 53
M  V30 57 1 32 54
M  V30 END BOND
M  V30 END CTAB
M  END
>  <Dataset>  (556) 
ChEMBL_Kinases

>  <Ligand_Instance>  (556) 
nan

>  <PDB_ID>  (556) 
nan

>  <Standardized_SMILES>  (556) 
O=C(COC(=O)c1cccc(S(=O)(=O)N2CCc3ccccc32)c1)NC1CCS(=O)(=O)C1

>  <Name>  (556) 
nan

>  <Pocket>  (556) 
nan

>  <ATP_Site>  (556) 
nan

>  <Peripheral>  (556) 
nan

>  <Num_H_Atoms_ProtBoundConf>  (556) 
nan

>  <Num_Resolved_Atoms>  (556) 
nan

>  <Num_Not_Resolved_Atoms>  (556) 
nan

$$$$
CHEMBL1424254
     RDKit          3D

  0  0  0  0  0  0  0  0  0  0999 V3000
M  V30 BEGIN CTAB
M  V30 COUNTS 31 31 0 0 0
M  V30 BEGIN ATOM
M  V30 1 C 1.300753 -2.632142 5.997521 0
M  V30 2 O 2.290616 -2.065496 5.144270 0
M  V30 3 C 1.806837 -1.377008 4.037305 0
M  V30 4 C 2.329905 -1.334139 2.810640 0
M  V30 5 C 1.730032 -0.579514 1.743044 0
M  V30 6 C 1.216658 0.058613 0.855120 0
M  V30 7 C 0.564276 0.835813 -0.224047 0
M  V30 8 O 0.817542 2.196789 -0.104613 0
M  V30 9 C -0.946672 0.588225 -0.175007 0
M  V30 10 C -1.096395 -0.921974 -0.275116 0
M  V30 11 N -0.889377 -1.258191 -1.660777 0
M  V30 12 C -2.187053 -1.325319 -2.299281 0
M  V30 13 C -0.099758 -0.271306 -2.345274 0
M  V30 14 C 1.050881 0.256719 -1.519048 0
M  V30 15 H 1.718129 -3.166420 6.858138 0
M  V30 16 H 0.699838 -3.341359 5.362388 0
M  V30 17 H 0.622704 -1.792389 6.257175 0
M  V30 18 H 0.884883 -0.782795 4.137573 0
M  V30 19 H 3.243153 -1.917530 2.695267 0
M  V30 20 H 0.006598 2.615600 0.274606 0
M  V30 21 H -1.379372 0.933605 0.782133 0
M  V30 22 H -1.421786 1.135556 -0.985770 0
M  V30 23 H -2.073341 -1.249921 0.120162 0
M  V30 24 H -0.319887 -1.367756 0.386590 0
M  V30 25 H -3.015283 -1.175379 -1.571782 0
M  V30 26 H -2.308435 -0.528568 -3.077708 0
M  V30 27 H -2.365788 -2.321569 -2.749130 0
M  V30 28 H 0.381121 -0.797024 -3.213748 0
M  V30 29 H -0.715224 0.532528 -2.802375 0
M  V30 30 H 1.515866 1.073129 -2.124056 0
M  V30 31 H 1.793217 -0.545090 -1.418734 0
M  V30 END ATOM
M  V30 BEGIN BOND
M  V30 1 1 1 2
M  V30 2 1 2 3
M  V30 3 2 3 4
M  V30 4 1 4 5
M  V30 5 3 5 6
M  V30 6 1 6 7
M  V30 7 1 7 8
M  V30 8 1 7 9
M  V30 9 1 9 10
M  V30 10 1 10 11
M  V30 11 1 11 12
M  V30 12 1 11 13
M  V30 13 1 13 14
M  V30 14 1 14 7
M  V30 15 1 1 15
M  V30 16 1 1 16
M  V30 17 1 1 17
M  V30 18 1 3 18
M  V30 19 1 4 19
M  V30 20 1 8 20
M  V30 21 1 9 21
M  V30 22 1 9 22
M  V30 23 1 10 23
M  V30 24 1 10 24
M  V30 25 1 12 25
M  V30 26 1 12 26
M  V30 27 1 12 27
M  V30 28 1 13 28
M  V30 29 1 13 29
M  V30 30 1 14 30
M  V30 31 1 14 31
M  V30 END BOND
M  V30 END CTAB
M  END
>  <Dataset>  (557) 
ChEMBL_Kinases

>  <Ligand_Instance>  (557) 
nan

>  <PDB_ID>  (557) 
nan

>  <Standardized_SMILES>  (557) 
CO/C=C/C#CC1(O)CCN(C)CC1

>  <Name>  (557) 
nan

>  <Pocket>  (557) 
nan

>  <ATP_Site>  (557) 
nan

>  <Peripheral>  (557) 
nan

>  <Num_H_Atoms_ProtBoundConf>  (557) 
nan

>  <Num_Resolved_Atoms>  (557) 
nan

>  <Num_Not_Resolved_Atoms>  (557) 
nan

$$$$
CHEMBL1424494
     RDKit          3D

  0  0  0  0  0  0  0  0  0  0999 V3000
M  V30 BEGIN CTAB
M  V30 COUNTS 44 45 0 0 0
M  V30 BEGIN ATOM
M  V30 1 C -1.274622 -7.818325 -1.336918 0
M  V30 2 O -0.057301 -7.116867 -1.123566 0
M  V30 3 C 0.090221 -5.816563 -1.581833 0
M  V30 4 C 1.319855 -5.259411 -1.305950 0
M  V30 5 C 1.631880 -3.961669 -1.696599 0
M  V30 6 C 0.669321 -3.230283 -2.377605 0
M  V30 7 C 0.950364 -1.838630 -2.817526 0
M  V30 8 C 0.559181 -0.870920 -1.763556 0
M  V30 9 O 0.057445 -1.238041 -0.655948 0
M  V30 10 N 0.740316 0.519477 -1.972908 0
M  V30 11 N 0.323780 1.301409 -0.889200 0
M  V30 12 C 1.315620 1.559495 0.081597 0
M  V30 13 O 2.482857 1.105708 -0.044680 0
M  V30 14 C 1.048588 2.359451 1.276689 0
M  V30 15 C 2.100144 2.551972 2.173536 0
M  V30 16 C 1.909862 3.307489 3.335977 0
M  V30 17 C 0.650857 3.848458 3.555326 0
M  V30 18 N 0.463230 4.622102 4.750055 0
M  V30 19 C 0.031132 3.842104 5.883547 0
M  V30 20 C -0.235396 4.378682 7.225850 0
M  V30 21 O -0.136061 2.596851 5.726095 0
M  V30 22 C -0.428652 3.682620 2.688013 0
M  V30 23 C -0.175145 2.927318 1.560338 0
M  V30 24 C -0.559380 -3.798963 -2.648514 0
M  V30 25 C -0.874882 -5.097736 -2.258952 0
M  V30 26 H -1.650294 -7.649892 -2.356941 0
M  V30 27 H -1.137242 -8.909156 -1.196000 0
M  V30 28 H -2.009595 -7.473831 -0.579374 0
M  V30 29 H 2.104880 -5.778336 -0.781693 0
M  V30 30 H 2.605441 -3.504811 -1.484551 0
M  V30 31 H 0.542835 -1.641575 -3.807655 0
M  V30 32 H 2.070309 -1.771879 -2.926293 0
M  V30 33 H 1.144778 0.914458 -2.851257 0
M  V30 34 H -0.645661 1.675359 -0.788955 0
M  V30 35 H 3.090988 2.138098 2.021057 0
M  V30 36 H 2.714559 3.466299 4.041261 0
M  V30 37 H 0.594721 5.643821 4.900819 0
M  V30 38 H -1.355906 4.352406 7.364023 0
M  V30 39 H 0.048433 5.445423 7.333582 0
M  V30 40 H 0.188291 3.791641 8.059873 0
M  V30 41 H -1.391144 4.113881 2.885324 0
M  V30 42 H -0.985990 2.788324 0.884745 0
M  V30 43 H -1.314576 -3.237033 -3.178009 0
M  V30 44 H -1.820154 -5.589746 -2.445634 0
M  V30 END ATOM
M  V30 BEGIN BOND
M  V30 1 1 1 2
M  V30 2 1 2 3
M  V30 3 2 3 4
M  V30 4 1 4 5
M  V30 5 2 5 6
M  V30 6 1 6 7
M  V30 7 1 7 8
M  V30 8 2 8 9
M  V30 9 1 8 10
M  V30 10 1 10 11
M  V30 11 1 11 12
M  V30 12 2 12 13
M  V30 13 1 12 14
M  V30 14 2 14 15
M  V30 15 1 15 16
M  V30 16 2 16 17
M  V30 17 1 17 18
M  V30 18 1 18 19
M  V30 19 1 19 20
M  V30 20 2 19 21
M  V30 21 1 17 22
M  V30 22 2 22 23
M  V30 23 1 6 24
M  V30 24 2 24 25
M  V30 25 1 25 3
M  V30 26 1 23 14
M  V30 27 1 1 26
M  V30 28 1 1 27
M  V30 29 1 1 28
M  V30 30 1 4 29
M  V30 31 1 5 30
M  V30 32 1 7 31
M  V30 33 1 7 32
M  V30 34 1 10 33
M  V30 35 1 11 34
M  V30 36 1 15 35
M  V30 37 1 16 36
M  V30 38 1 18 37
M  V30 39 1 20 38
M  V30 40 1 20 39
M  V30 41 1 20 40
M  V30 42 1 22 41
M  V30 43 1 23 42
M  V30 44 1 24 43
M  V30 45 1 25 44
M  V30 END BOND
M  V30 END CTAB
M  END
>  <Dataset>  (558) 
ChEMBL_Kinases

>  <Ligand_Instance>  (558) 
nan

>  <PDB_ID>  (558) 
nan

>  <Standardized_SMILES>  (558) 
COc1ccc(CC(=O)NNC(=O)c2ccc(NC(C)=O)cc2)cc1

>  <Name>  (558) 
nan

>  <Pocket>  (558) 
nan

>  <ATP_Site>  (558) 
nan

>  <Peripheral>  (558) 
nan

>  <Num_H_Atoms_ProtBoundConf>  (558) 
nan

>  <Num_Resolved_Atoms>  (558) 
nan

>  <Num_Not_Resolved_Atoms>  (558) 
nan

$$$$
CHEMBL1424619
     RDKit          3D

  0  0  0  0  0  0  0  0  0  0999 V3000
M  V30 BEGIN CTAB
M  V30 COUNTS 58 60 0 0 0
M  V30 BEGIN ATOM
M  V30 1 C -0.467587 4.130302 4.333353 0
M  V30 2 C 0.480073 3.011621 4.143709 0
M  V30 3 N 1.218310 2.441801 5.105354 0
M  V30 4 O 1.947992 1.492237 4.629515 0
M  V30 5 C 1.718376 1.395181 3.321526 0
M  V30 6 C 2.451954 0.376171 2.615650 0
M  V30 7 C 2.497973 -0.142503 1.413504 0
M  V30 8 N 3.269491 -1.156150 0.807906 0
M  V30 9 C 4.660969 -1.432635 1.112228 0
M  V30 10 C 2.700874 -2.019975 -0.197460 0
M  V30 11 C 0.793846 2.340887 2.965059 0
M  V30 12 S 0.141727 2.662054 1.408920 0
M  V30 13 O 1.194596 2.760625 0.343863 0
M  V30 14 O -0.359022 4.140666 1.487887 0
M  V30 15 N -1.143309 1.758677 0.885965 0
M  V30 16 C -2.370853 1.755283 1.550690 0
M  V30 17 C -2.938841 0.431277 1.923397 0
M  V30 18 C -2.103331 -0.750898 1.572955 0
M  V30 19 C -1.236233 -0.613137 0.362745 0
M  V30 20 C -1.776980 -1.390282 -0.783489 0
M  V30 21 O -2.831221 -1.983165 -0.491597 0
M  V30 22 N -1.189561 -1.462474 -2.048177 0
M  V30 23 C -1.682705 -2.207486 -3.190973 0
M  V30 24 C -1.363919 -3.639255 -2.958014 0
M  V30 25 C -2.125689 -4.608712 -2.346442 0
M  V30 26 C -1.649652 -5.885367 -2.226061 0
M  V30 27 C -0.406222 -6.259348 -2.702088 0
M  V30 28 Cl 0.107232 -7.915732 -2.497736 0
M  V30 29 C 0.365246 -5.296464 -3.316309 0
M  V30 30 C -0.103126 -3.995775 -3.446732 0
M  V30 31 C -1.025182 0.799187 -0.118027 0
M  V30 32 H -0.259992 4.987921 3.662865 0
M  V30 33 H -1.527589 3.830178 4.238459 0
M  V30 34 H -0.367782 4.551733 5.362256 0
M  V30 35 H 3.241837 -0.217045 3.115119 0
M  V30 36 H 1.758816 0.311006 0.775826 0
M  V30 37 H 4.728454 -2.274288 1.819952 0
M  V30 38 H 5.118769 -0.528505 1.574560 0
M  V30 39 H 5.206293 -1.631006 0.177946 0
M  V30 40 H 1.724712 -1.705198 -0.582803 0
M  V30 41 H 2.677406 -3.045101 0.249882 0
M  V30 42 H 3.383280 -2.110348 -1.087689 0
M  V30 43 H -2.291953 2.457358 2.430125 0
M  V30 44 H -3.105062 2.301234 0.883691 0
M  V30 45 H -3.969488 0.326530 1.523336 0
M  V30 46 H -3.070049 0.431537 3.041670 0
M  V30 47 H -1.501737 -1.076937 2.448352 0
M  V30 48 H -2.794412 -1.604534 1.394302 0
M  V30 49 H -0.227409 -1.015841 0.596235 0
M  V30 50 H -0.305614 -0.919078 -2.165325 0
M  V30 51 H -2.799712 -2.052978 -3.195306 0
M  V30 52 H -1.287936 -1.832781 -4.136124 0
M  V30 53 H -3.082515 -4.256762 -1.998965 0
M  V30 54 H -2.326734 -6.589846 -1.724597 0
M  V30 55 H 1.323306 -5.655190 -3.663987 0
M  V30 56 H 0.592663 -3.339385 -3.943699 0
M  V30 57 H -0.056745 0.878494 -0.662974 0
M  V30 58 H -1.811426 1.004372 -0.906965 0
M  V30 END ATOM
M  V30 BEGIN BOND
M  V30 1 1 1 2
M  V30 2 2 2 3
M  V30 3 1 3 4
M  V30 4 1 4 5
M  V30 5 1 5 6
M  V30 6 2 6 7
M  V30 7 1 7 8
M  V30 8 1 8 9
M  V30 9 1 8 10
M  V30 10 2 5 11
M  V30 11 1 11 12
M  V30 12 2 12 13
M  V30 13 2 12 14
M  V30 14 1 12 15
M  V30 15 1 15 16
M  V30 16 1 16 17
M  V30 17 1 17 18
M  V30 18 1 18 19
M  V30 19 1 19 20
M  V30 20 2 20 21
M  V30 21 1 20 22
M  V30 22 1 22 23
M  V30 23 1 23 24
M  V30 24 2 24 25
M  V30 25 1 25 26
M  V30 26 2 26 27
M  V30 27 1 27 28
M  V30 28 1 27 29
M  V30 29 2 29 30
M  V30 30 1 19 31
M  V30 31 1 11 2
M  V30 32 1 31 15
M  V30 33 1 30 24
M  V30 34 1 1 32
M  V30 35 1 1 33
M  V30 36 1 1 34
M  V30 37 1 6 35
M  V30 38 1 7 36
M  V30 39 1 9 37
M  V30 40 1 9 38
M  V30 41 1 9 39
M  V30 42 1 10 40
M  V30 43 1 10 41
M  V30 44 1 10 42
M  V30 45 1 16 43
M  V30 46 1 16 44
M  V30 47 1 17 45
M  V30 48 1 17 46
M  V30 49 1 18 47
M  V30 50 1 18 48
M  V30 51 1 19 49
M  V30 52 1 22 50
M  V30 53 1 23 51
M  V30 54 1 23 52
M  V30 55 1 25 53
M  V30 56 1 26 54
M  V30 57 1 29 55
M  V30 58 1 30 56
M  V30 59 1 31 57
M  V30 60 1 31 58
M  V30 END BOND
M  V30 END CTAB
M  END
>  <Dataset>  (559) 
ChEMBL_Kinases

>  <Ligand_Instance>  (559) 
nan

>  <PDB_ID>  (559) 
nan

>  <Standardized_SMILES>  (559) 
Cc1noc(/C=C/N(C)C)c1S(=O)(=O)N1CCCC(C(=O)NCc2ccc(Cl)cc2)C1

>  <Name>  (559) 
nan

>  <Pocket>  (559) 
nan

>  <ATP_Site>  (559) 
nan

>  <Peripheral>  (559) 
nan

>  <Num_H_Atoms_ProtBoundConf>  (559) 
nan

>  <Num_Resolved_Atoms>  (559) 
nan

>  <Num_Not_Resolved_Atoms>  (559) 
nan

$$$$
CHEMBL1424650
     RDKit          3D

  0  0  0  0  0  0  0  0  0  0999 V3000
M  V30 BEGIN CTAB
M  V30 COUNTS 47 49 0 0 0
M  V30 BEGIN ATOM
M  V30 1 C -0.748320 -5.373235 2.152116 0
M  V30 2 C 0.203322 -4.540455 2.971892 0
M  V30 3 O 0.153815 -3.214416 2.485467 0
M  V30 4 C 0.498557 -2.987195 1.182585 0
M  V30 5 O 0.867845 -3.838242 0.331930 0
M  V30 6 N 0.501494 -1.711740 0.537349 0
M  V30 7 C 0.908193 -1.716841 -0.863553 0
M  V30 8 C 1.527502 -0.462638 -1.347918 0
M  V30 9 C 1.290044 0.762456 -0.551331 0
M  V30 10 O 0.243922 1.571024 -1.053385 0
M  V30 11 C 2.507153 1.662484 -0.663197 0
M  V30 12 C 2.914193 2.290797 0.641323 0
M  V30 13 C 1.781720 2.815697 1.460656 0
M  V30 14 C 0.572738 1.911386 1.451860 0
M  V30 15 C 1.029435 0.585128 0.903034 0
M  V30 16 C 0.118706 -0.541550 1.275624 0
M  V30 17 C -1.310855 -0.198273 1.239332 0
M  V30 18 C -2.068918 -0.208269 0.076153 0
M  V30 19 C -3.411994 0.108998 0.010886 0
M  V30 20 C -4.072418 0.462255 1.153907 0
M  V30 21 F -5.375806 0.780855 1.154473 0
M  V30 22 C -3.386561 0.495537 2.350690 0
M  V30 23 C -2.045213 0.170563 2.367498 0
M  V30 24 H -0.296642 -6.350765 1.887047 0
M  V30 25 H -1.674356 -5.492879 2.749508 0
M  V30 26 H -1.039106 -4.808610 1.255137 0
M  V30 27 H 1.229055 -4.986282 2.828918 0
M  V30 28 H -0.011097 -4.596093 4.057223 0
M  V30 29 H 1.649356 -2.542095 -1.055015 0
M  V30 30 H 0.053278 -2.071999 -1.514142 0
M  V30 31 H 1.084140 -0.257577 -2.367673 0
M  V30 32 H 2.618666 -0.575037 -1.578019 0
M  V30 33 H 0.286744 1.544230 -2.053317 0
M  V30 34 H 2.429584 2.419738 -1.456967 0
M  V30 35 H 3.392971 1.032314 -0.970236 0
M  V30 36 H 3.625847 1.648164 1.206619 0
M  V30 37 H 3.535108 3.189408 0.360930 0
M  V30 38 H 1.487178 3.840469 1.167372 0
M  V30 39 H 2.138866 2.883012 2.522339 0
M  V30 40 H -0.189442 2.376454 0.789721 0
M  V30 41 H 0.191968 1.732637 2.472503 0
M  V30 42 H 2.033222 0.379485 1.365071 0
M  V30 43 H 0.343564 -0.722400 2.372008 0
M  V30 44 H -1.612560 -0.475789 -0.853159 0
M  V30 45 H -3.959222 0.086758 -0.918357 0
M  V30 46 H -3.890865 0.772714 3.267680 0
M  V30 47 H -1.534725 0.205547 3.319011 0
M  V30 END ATOM
M  V30 BEGIN BOND
M  V30 1 1 1 2
M  V30 2 1 2 3
M  V30 3 1 3 4
M  V30 4 2 4 5
M  V30 5 1 4 6
M  V30 6 1 6 7
M  V30 7 1 7 8
M  V30 8 1 8 9
M  V30 9 1 9 10
M  V30 10 1 9 11
M  V30 11 1 11 12
M  V30 12 1 12 13
M  V30 13 1 13 14
M  V30 14 1 14 15
M  V30 15 1 15 16
M  V30 16 1 16 17
M  V30 17 2 17 18
M  V30 18 1 18 19
M  V30 19 2 19 20
M  V30 20 1 20 21
M  V30 21 1 20 22
M  V30 22 2 22 23
M  V30 23 1 16 6
M  V30 24 1 23 17
M  V30 25 1 15 9
M  V30 26 1 1 24
M  V30 27 1 1 25
M  V30 28 1 1 26
M  V30 29 1 2 27
M  V30 30 1 2 28
M  V30 31 1 7 29
M  V30 32 1 7 30
M  V30 33 1 8 31
M  V30 34 1 8 32
M  V30 35 1 10 33
M  V30 36 1 11 34
M  V30 37 1 11 35
M  V30 38 1 12 36
M  V30 39 1 12 37
M  V30 40 1 13 38
M  V30 41 1 13 39
M  V30 42 1 14 40
M  V30 43 1 14 41
M  V30 44 1 15 42
M  V30 45 1 16 43
M  V30 46 1 18 44
M  V30 47 1 19 45
M  V30 48 1 22 46
M  V30 49 1 23 47
M  V30 END BOND
M  V30 END CTAB
M  END
>  <Dataset>  (560) 
ChEMBL_Kinases

>  <Ligand_Instance>  (560) 
nan

>  <PDB_ID>  (560) 
nan

>  <Standardized_SMILES>  (560) 
CCOC(=O)N1CCC2(O)CCCCC2C1c1ccc(F)cc1

>  <Name>  (560) 
nan

>  <Pocket>  (560) 
nan

>  <ATP_Site>  (560) 
nan

>  <Peripheral>  (560) 
nan

>  <Num_H_Atoms_ProtBoundConf>  (560) 
nan

>  <Num_Resolved_Atoms>  (560) 
nan

>  <Num_Not_Resolved_Atoms>  (560) 
nan

$$$$
CHEMBL1424797
     RDKit          3D

  0  0  0  0  0  0  0  0  0  0999 V3000
M  V30 BEGIN CTAB
M  V30 COUNTS 32 35 0 0 0
M  V30 BEGIN ATOM
M  V30 1 C -1.000657 2.213535 0.540898 0
M  V30 2 N -0.165391 1.089367 0.243837 0
M  V30 3 C -0.308654 -0.102832 0.849702 0
M  V30 4 N 0.479079 -1.151086 0.564753 0 CHG=1 VAL=4
M  V30 5 C 1.472355 -1.094234 -0.346910 0
M  V30 6 C 2.303689 -2.154254 -0.666171 0
M  V30 7 C 3.307134 -2.046669 -1.607273 0
M  V30 8 C 3.449884 -0.822402 -2.225534 0
M  V30 9 Cl 4.730090 -0.661343 -3.435725 0
M  V30 10 C 2.659281 0.274693 -1.957574 0
M  V30 11 C 1.680959 0.100655 -1.012333 0
M  V30 12 C 0.835162 1.133238 -0.669140 0
M  V30 13 O 1.017944 2.224523 -1.269943 0
M  V30 14 C 0.145396 -2.324609 1.333542 0
M  V30 15 C -0.987656 -1.912426 2.182388 0
M  V30 16 C -1.716349 -2.617869 3.117148 0
M  V30 17 C -2.756679 -1.983529 3.793983 0
M  V30 18 C -3.010804 -0.661862 3.491851 0
M  V30 19 C -2.259534 0.031798 2.541605 0
M  V30 20 C -1.229203 -0.591312 1.869219 0
M  V30 21 H -0.635542 3.067281 -0.102129 0
M  V30 22 H -2.076423 2.044229 0.254748 0
M  V30 23 H -0.873241 2.565210 1.569626 0
M  V30 24 H 2.145350 -3.095111 -0.147513 0
M  V30 25 H 3.949662 -2.895436 -1.842227 0
M  V30 26 H 2.803992 1.223261 -2.467137 0
M  V30 27 H 1.013524 -2.718773 1.917003 0
M  V30 28 H -0.116814 -3.149122 0.636369 0
M  V30 29 H -1.469234 -3.648931 3.309121 0
M  V30 30 H -3.307126 -2.563376 4.518908 0
M  V30 31 H -3.830278 -0.178606 4.031579 0
M  V30 32 H -2.552027 1.061694 2.390703 0
M  V30 END ATOM
M  V30 BEGIN BOND
M  V30 1 1 1 2
M  V30 2 1 2 3
M  V30 3 2 3 4
M  V30 4 1 4 5
M  V30 5 2 5 6
M  V30 6 1 6 7
M  V30 7 2 7 8
M  V30 8 1 8 9
M  V30 9 1 8 10
M  V30 10 2 10 11
M  V30 11 1 11 12
M  V30 12 2 12 13
M  V30 13 1 4 14
M  V30 14 1 14 15
M  V30 15 2 15 16
M  V30 16 1 16 17
M  V30 17 2 17 18
M  V30 18 1 18 19
M  V30 19 2 19 20
M  V30 20 1 12 2
M  V30 21 1 20 15
M  V30 22 1 20 3
M  V30 23 1 11 5
M  V30 24 1 1 21
M  V30 25 1 1 22
M  V30 26 1 1 23
M  V30 27 1 6 24
M  V30 28 1 7 25
M  V30 29 1 10 26
M  V30 30 1 14 27
M  V30 31 1 14 28
M  V30 32 1 16 29
M  V30 33 1 17 30
M  V30 34 1 18 31
M  V30 35 1 19 32
M  V30 END BOND
M  V30 END CTAB
M  END
>  <Dataset>  (561) 
ChEMBL_Kinases

>  <Ligand_Instance>  (561) 
nan

>  <PDB_ID>  (561) 
nan

>  <Standardized_SMILES>  (561) 
Cn1c2[n+](c3ccc(Cl)cc3c1=O)Cc1ccccc1-2

>  <Name>  (561) 
nan

>  <Pocket>  (561) 
nan

>  <ATP_Site>  (561) 
nan

>  <Peripheral>  (561) 
nan

>  <Num_H_Atoms_ProtBoundConf>  (561) 
nan

>  <Num_Resolved_Atoms>  (561) 
nan

>  <Num_Not_Resolved_Atoms>  (561) 
nan

$$$$
CHEMBL1425896
     RDKit          3D

  0  0  0  0  0  0  0  0  0  0999 V3000
M  V30 BEGIN CTAB
M  V30 COUNTS 36 38 0 0 0
M  V30 BEGIN ATOM
M  V30 1 C -0.757945 -4.308900 1.405725 0
M  V30 2 C 0.159448 -4.606408 0.215341 0
M  V30 3 N 0.873203 -3.380047 -0.129870 0
M  V30 4 C 2.109411 -2.942428 0.369105 0
M  V30 5 C 2.935112 -3.689473 1.380267 0
M  V30 6 O 2.486085 -1.838754 -0.111545 0
M  V30 7 C 0.305868 -2.464132 -1.084378 0
M  V30 8 N 0.353208 -2.314815 -2.255696 0
M  V30 9 N -0.255977 -1.393943 -2.931034 0
M  V30 10 C -0.946491 -0.568963 -2.483484 0
M  V30 11 C -1.790397 0.603601 -2.860507 0
M  V30 12 S -0.692961 2.045740 -2.806253 0
M  V30 13 C -0.176891 2.320917 -1.058374 0
M  V30 14 N -0.670173 2.943826 -0.253546 0
M  V30 15 C -0.352638 3.177984 1.003884 0
M  V30 16 C -0.971072 3.943730 1.971026 0
M  V30 17 C -0.429258 4.026600 3.231371 0
M  V30 18 C 0.721561 3.395776 3.652377 0
M  V30 19 C 1.356660 2.620249 2.689866 0
M  V30 20 C 0.788515 2.548283 1.409634 0
M  V30 21 S 1.325887 1.659432 -0.055045 0
M  V30 22 S -0.823396 -1.059855 -0.658590 0
M  V30 23 H -0.259869 -4.605149 2.349722 0
M  V30 24 H -1.076107 -3.256170 1.434059 0
M  V30 25 H -1.687966 -4.923804 1.241785 0
M  V30 26 H 0.848135 -5.414598 0.498582 0
M  V30 27 H -0.404973 -4.943807 -0.673655 0
M  V30 28 H 2.573559 -3.337687 2.385592 0
M  V30 29 H 2.802148 -4.788832 1.284396 0
M  V30 30 H 4.006529 -3.408246 1.269723 0
M  V30 31 H -2.531982 0.763050 -2.037103 0
M  V30 32 H -2.251972 0.460112 -3.830472 0
M  V30 33 H -1.897727 4.515114 1.809233 0
M  V30 34 H -0.911168 4.634148 4.015478 0
M  V30 35 H 1.193869 3.420025 4.617444 0
M  V30 36 H 2.263431 2.040555 2.789928 0
M  V30 END ATOM
M  V30 BEGIN BOND
M  V30 1 1 1 2
M  V30 2 1 2 3
M  V30 3 1 3 4
M  V30 4 1 4 5
M  V30 5 2 4 6
M  V30 6 1 3 7
M  V30 7 2 7 8
M  V30 8 1 8 9
M  V30 9 2 9 10
M  V30 10 1 10 11
M  V30 11 1 11 12
M  V30 12 1 12 13
M  V30 13 2 13 14
M  V30 14 1 14 15
M  V30 15 2 15 16
M  V30 16 1 16 17
M  V30 17 2 17 18
M  V30 18 1 18 19
M  V30 19 2 19 20
M  V30 20 1 20 21
M  V30 21 1 10 22
M  V30 22 1 22 7
M  V30 23 1 21 13
M  V30 24 1 20 15
M  V30 25 1 1 23
M  V30 26 1 1 24
M  V30 27 1 1 25
M  V30 28 1 2 26
M  V30 29 1 2 27
M  V30 30 1 5 28
M  V30 31 1 5 29
M  V30 32 1 5 30
M  V30 33 1 11 31
M  V30 34 1 11 32
M  V30 35 1 16 33
M  V30 36 1 17 34
M  V30 37 1 18 35
M  V30 38 1 19 36
M  V30 END BOND
M  V30 END CTAB
M  END
>  <Dataset>  (562) 
ChEMBL_Kinases

>  <Ligand_Instance>  (562) 
nan

>  <PDB_ID>  (562) 
nan

>  <Standardized_SMILES>  (562) 
CCN(C(C)=O)c1nnc(CSc2nc3ccccc3s2)s1

>  <Name>  (562) 
nan

>  <Pocket>  (562) 
nan

>  <ATP_Site>  (562) 
nan

>  <Peripheral>  (562) 
nan

>  <Num_H_Atoms_ProtBoundConf>  (562) 
nan

>  <Num_Resolved_Atoms>  (562) 
nan

>  <Num_Not_Resolved_Atoms>  (562) 
nan

$$$$
CHEMBL1424968
     RDKit          3D

  0  0  0  0  0  0  0  0  0  0999 V3000
M  V30 BEGIN CTAB
M  V30 COUNTS 54 57 0 0 0
M  V30 BEGIN ATOM
M  V30 1 C 2.293542 -1.625341 6.292954 0
M  V30 2 C 3.075558 -0.732763 5.358501 0
M  V30 3 C 3.413219 -1.450304 4.071772 0
M  V30 4 C 4.186182 -0.571203 3.145840 0
M  V30 5 O 4.620412 0.609436 3.176354 0
M  V30 6 N 4.544780 -1.176124 1.904266 0
M  V30 7 C 5.306967 -0.456725 0.873391 0
M  V30 8 C 4.489639 -0.465910 -0.371117 0
M  V30 9 N 3.182600 -1.118632 -0.202151 0
M  V30 10 C 1.841061 -0.652482 -0.446536 0
M  V30 11 C 0.918349 -0.597702 0.599166 0
M  V30 12 C -0.378127 -0.143953 0.347928 0
M  V30 13 C -0.684043 0.235162 -0.953646 0
M  V30 14 N -2.045149 0.692967 -1.132843 0
M  V30 15 C -2.878159 -0.435220 -1.470408 0
M  V30 16 O -2.225110 -1.510183 -1.522820 0
M  V30 17 C -4.319670 -0.197823 -1.700232 0
M  V30 18 C -5.139449 0.912456 -1.673329 0
M  V30 19 C -6.415057 0.436498 -1.987551 0
M  V30 20 C -7.554280 1.181949 -2.079036 0
M  V30 21 C -8.714379 0.477459 -2.408702 0
M  V30 22 C -8.670997 -0.886844 -2.621087 0
M  V30 23 C -7.482316 -1.567187 -2.509878 0
M  V30 24 C -6.297380 -0.919670 -2.184804 0
M  V30 25 O -5.047407 -1.258113 -2.006954 0
M  V30 26 C 0.232529 0.180886 -1.993016 0
M  V30 27 C 1.520080 -0.271612 -1.734952 0
M  V30 28 Cl 2.661546 -0.334168 -3.052403 0
M  V30 29 C 3.359453 -2.466536 0.303102 0
M  V30 30 C 4.207249 -2.550182 1.514113 0
M  V30 31 H 1.243037 -1.769667 5.968225 0
M  V30 32 H 2.762093 -2.605809 6.458571 0
M  V30 33 H 2.252523 -1.115912 7.289104 0
M  V30 34 H 4.004393 -0.461173 5.909674 0
M  V30 35 H 2.462969 0.173858 5.181571 0
M  V30 36 H 2.468853 -1.789312 3.601381 0
M  V30 37 H 3.969107 -2.367577 4.338364 0
M  V30 38 H 5.432918 0.568756 1.251475 0
M  V30 39 H 6.307893 -0.913909 0.734723 0
M  V30 40 H 5.017004 -1.136023 -1.111945 0
M  V30 41 H 4.407347 0.559753 -0.751538 0
M  V30 42 H 1.189005 -0.896492 1.583552 0
M  V30 43 H -1.101421 -0.097990 1.153811 0
M  V30 44 H -2.487129 1.645820 -1.060874 0
M  V30 45 H -4.706169 1.875659 -1.437065 0
M  V30 46 H -7.577723 2.236763 -1.912958 0
M  V30 47 H -9.662624 1.013509 -2.498490 0
M  V30 48 H -9.555610 -1.469035 -2.879736 0
M  V30 49 H -7.451771 -2.648141 -2.678891 0
M  V30 50 H -0.111082 0.500748 -2.971115 0
M  V30 51 H 3.862053 -3.097019 -0.487364 0
M  V30 52 H 2.381077 -2.950873 0.484951 0
M  V30 53 H 5.150083 -3.101930 1.367693 0
M  V30 54 H 3.632489 -3.015596 2.339659 0
M  V30 END ATOM
M  V30 BEGIN BOND
M  V30 1 1 1 2
M  V30 2 1 2 3
M  V30 3 1 3 4
M  V30 4 2 4 5
M  V30 5 1 4 6
M  V30 6 1 6 7
M  V30 7 1 7 8
M  V30 8 1 8 9
M  V30 9 1 9 10
M  V30 10 2 10 11
M  V30 11 1 11 12
M  V30 12 2 12 13
M  V30 13 1 13 14
M  V30 14 1 14 15
M  V30 15 2 15 16
M  V30 16 1 15 17
M  V30 17 2 17 18
M  V30 18 1 18 19
M  V30 19 2 19 20
M  V30 20 1 20 21
M  V30 21 2 21 22
M  V30 22 1 22 23
M  V30 23 2 23 24
M  V30 24 1 24 25
M  V30 25 1 13 26
M  V30 26 2 26 27
M  V30 27 1 27 28
M  V30 28 1 9 29
M  V30 29 1 29 30
M  V30 30 1 30 6
M  V30 31 1 27 10
M  V30 32 1 25 17
M  V30 33 1 24 19
M  V30 34 1 1 31
M  V30 35 1 1 32
M  V30 36 1 1 33
M  V30 37 1 2 34
M  V30 38 1 2 35
M  V30 39 1 3 36
M  V30 40 1 3 37
M  V30 41 1 7 38
M  V30 42 1 7 39
M  V30 43 1 8 40
M  V30 44 1 8 41
M  V30 45 1 11 42
M  V30 46 1 12 43
M  V30 47 1 14 44
M  V30 48 1 18 45
M  V30 49 1 20 46
M  V30 50 1 21 47
M  V30 51 1 22 48
M  V30 52 1 23 49
M  V30 53 1 26 50
M  V30 54 1 29 51
M  V30 55 1 29 52
M  V30 56 1 30 53
M  V30 57 1 30 54
M  V30 END BOND
M  V30 END CTAB
M  END
>  <Dataset>  (563) 
ChEMBL_Kinases

>  <Ligand_Instance>  (563) 
nan

>  <PDB_ID>  (563) 
nan

>  <Standardized_SMILES>  (563) 
CCCC(=O)N1CCN(c2ccc(NC(=O)c3cc4ccccc4o3)cc2Cl)CC1

>  <Name>  (563) 
nan

>  <Pocket>  (563) 
nan

>  <ATP_Site>  (563) 
nan

>  <Peripheral>  (563) 
nan

>  <Num_H_Atoms_ProtBoundConf>  (563) 
nan

>  <Num_Resolved_Atoms>  (563) 
nan

>  <Num_Not_Resolved_Atoms>  (563) 
nan

$$$$
CHEMBL1424998
     RDKit          3D

  0  0  0  0  0  0  0  0  0  0999 V3000
M  V30 BEGIN CTAB
M  V30 COUNTS 50 52 0 0 0
M  V30 BEGIN ATOM
M  V30 1 C 2.710764 -4.591410 2.356219 0
M  V30 2 C 2.083811 -4.577962 1.007709 0
M  V30 3 O 1.963467 -3.358017 0.366618 0
M  V30 4 C 2.907508 -2.467951 -0.038658 0
M  V30 5 O 4.116876 -2.724204 0.163269 0
M  V30 6 C 2.407375 -1.249296 -0.698784 0
M  V30 7 N 3.169284 -0.228494 -1.194139 0
M  V30 8 C 2.427990 0.750695 -1.741283 0
M  V30 9 C 2.723856 2.019015 -2.387151 0
M  V30 10 C 1.120135 0.365436 -1.605586 0
M  V30 11 C -0.248614 0.790565 -1.874476 0
M  V30 12 O -0.886178 0.283123 -2.844542 0
M  V30 13 N -0.624779 1.760996 -0.909906 0
M  V30 14 C 0.072055 2.437687 0.204110 0
M  V30 15 C -0.395480 1.793066 1.493279 0
M  V30 16 N -1.679112 1.142718 1.327764 0
M  V30 17 C -1.874787 0.238598 2.374049 0
M  V30 18 O -0.780482 0.470403 2.999742 0
M  V30 19 C -2.530567 -0.760958 3.157708 0
M  V30 20 C -2.444443 -2.123488 2.931462 0
M  V30 21 C -3.226254 -2.676859 3.919633 0
M  V30 22 C -3.744308 -1.628035 4.692261 0
M  V30 23 O -3.294113 -0.504906 4.188636 0
M  V30 24 C -2.633100 1.381549 0.255149 0
M  V30 25 C -2.041981 2.173253 -0.897732 0
M  V30 26 C 1.086308 -0.882384 -0.957415 0
M  V30 27 C -0.006638 -1.814378 -0.526831 0
M  V30 28 H 3.734517 -5.070129 2.365263 0
M  V30 29 H 2.062709 -5.160406 3.082956 0
M  V30 30 H 2.826276 -3.590231 2.753223 0
M  V30 31 H 1.042309 -5.002169 1.082376 0
M  V30 32 H 2.678071 -5.324978 0.388312 0
M  V30 33 H 4.192190 -0.205371 -1.156549 0
M  V30 34 H 1.851147 2.501776 -2.850774 0
M  V30 35 H 3.231579 2.719411 -1.686349 0
M  V30 36 H 3.441755 1.828496 -3.222732 0
M  V30 37 H -0.243468 3.499034 0.217911 0
M  V30 38 H 1.170403 2.407320 0.078074 0
M  V30 39 H -0.342255 2.454081 2.369138 0
M  V30 40 H 0.365843 0.974909 1.662246 0
M  V30 41 H -1.896110 -2.632595 2.153242 0
M  V30 42 H -3.435778 -3.723346 4.107691 0
M  V30 43 H -4.388032 -1.640459 5.549056 0
M  V30 44 H -3.500770 1.941062 0.600455 0
M  V30 45 H -2.934913 0.406980 -0.167451 0
M  V30 46 H -2.465874 1.892330 -1.865648 0
M  V30 47 H -2.110262 3.245440 -0.696625 0
M  V30 48 H -0.967649 -1.429336 -0.876962 0
M  V30 49 H 0.055468 -1.964680 0.557108 0
M  V30 50 H 0.155773 -2.787339 -1.035799 0
M  V30 END ATOM
M  V30 BEGIN BOND
M  V30 1 1 1 2
M  V30 2 1 2 3
M  V30 3 1 3 4
M  V30 4 2 4 5
M  V30 5 1 4 6
M  V30 6 1 6 7
M  V30 7 1 7 8
M  V30 8 1 8 9
M  V30 9 2 8 10
M  V30 10 1 10 11
M  V30 11 2 11 12
M  V30 12 1 11 13
M  V30 13 1 13 14
M  V30 14 1 14 15
M  V30 15 1 15 16
M  V30 16 1 16 17
M  V30 17 2 17 18
M  V30 18 1 17 19
M  V30 19 2 19 20
M  V30 20 1 20 21
M  V30 21 2 21 22
M  V30 22 1 22 23
M  V30 23 1 16 24
M  V30 24 1 24 25
M  V30 25 1 10 26
M  V30 26 1 26 27
M  V30 27 2 26 6
M  V30 28 1 25 13
M  V30 29 1 23 19
M  V30 30 1 1 28
M  V30 31 1 1 29
M  V30 32 1 1 30
M  V30 33 1 2 31
M  V30 34 1 2 32
M  V30 35 1 7 33
M  V30 36 1 9 34
M  V30 37 1 9 35
M  V30 38 1 9 36
M  V30 39 1 14 37
M  V30 40 1 14 38
M  V30 41 1 15 39
M  V30 42 1 15 40
M  V30 43 1 20 41
M  V30 44 1 21 42
M  V30 45 1 22 43
M  V30 46 1 24 44
M  V30 47 1 24 45
M  V30 48 1 25 46
M  V30 49 1 25 47
M  V30 50 1 27 48
M  V30 51 1 27 49
M  V30 52 1 27 50
M  V30 END BOND
M  V30 END CTAB
M  END
>  <Dataset>  (564) 
ChEMBL_Kinases

>  <Ligand_Instance>  (564) 
nan

>  <PDB_ID>  (564) 
nan

>  <Standardized_SMILES>  (564) 
CCOC(=O)c1[nH]c(C)c(C(=O)N2CCN(C(=O)c3ccco3)CC2)c1C

>  <Name>  (564) 
nan

>  <Pocket>  (564) 
nan

>  <ATP_Site>  (564) 
nan

>  <Peripheral>  (564) 
nan

>  <Num_H_Atoms_ProtBoundConf>  (564) 
nan

>  <Num_Resolved_Atoms>  (564) 
nan

>  <Num_Not_Resolved_Atoms>  (564) 
nan

$$$$
CHEMBL1425108
     RDKit          3D

  0  0  0  0  0  0  0  0  0  0999 V3000
M  V30 BEGIN CTAB
M  V30 COUNTS 52 55 0 0 0
M  V30 BEGIN ATOM
M  V30 1 C 0.291836 0.371097 6.715739 0
M  V30 2 C 1.736626 0.318361 6.290052 0
M  V30 3 O 1.874555 0.243634 4.883016 0
M  V30 4 C 1.378266 1.238872 4.055564 0
M  V30 5 O 0.774206 2.272149 4.490911 0
M  V30 6 N 1.526649 1.145074 2.652467 0
M  V30 7 C 1.019163 2.169101 1.760109 0
M  V30 8 C 0.016659 1.544639 0.783827 0
M  V30 9 C 0.601487 0.412336 0.022201 0
M  V30 10 C 1.971564 0.037096 0.519050 0
M  V30 11 C 2.185255 0.040530 1.989705 0
M  V30 12 C 0.852136 0.839020 -1.419699 0
M  V30 13 C 1.668188 2.032772 -1.483394 0
M  V30 14 N 2.325524 3.003301 -1.554867 0
M  V30 15 C 0.493854 0.365943 -2.601837 0
M  V30 16 N 0.865142 0.957950 -3.847071 0
M  V30 17 O -0.289520 -0.774998 -2.532955 0
M  V30 18 C -0.608315 -1.285573 -1.287985 0
M  V30 19 C -0.230373 -0.783837 -0.059376 0
M  V30 20 C -0.808554 -1.650071 0.811195 0
M  V30 21 C -0.787870 -1.654287 2.281543 0
M  V30 22 N -1.494944 -2.619232 0.138725 0
M  V30 23 N -1.379039 -2.405313 -1.163540 0
M  V30 24 C -1.994986 -3.262294 -2.117729 0
M  V30 25 C -2.860401 -2.630354 -2.984728 0
M  V30 26 C -3.484327 -3.443844 -3.936725 0
M  V30 27 C -3.242348 -4.820908 -4.003580 0
M  V30 28 C -2.348060 -5.350834 -3.075928 0
M  V30 29 Cl -2.078827 -7.074437 -3.199818 0
M  V30 30 C -1.697249 -4.610046 -2.110638 0
M  V30 31 H 0.155472 -0.202161 7.659050 0
M  V30 32 H -0.078866 1.384480 6.889104 0
M  V30 33 H -0.383146 -0.069981 5.930105 0
M  V30 34 H 2.289156 1.169341 6.713082 0
M  V30 35 H 2.179114 -0.607781 6.710739 0
M  V30 36 H 0.479594 2.944744 2.340806 0
M  V30 37 H 1.836931 2.667649 1.228817 0
M  V30 38 H -0.230653 2.363838 0.076960 0
M  V30 39 H -0.924861 1.294945 1.282310 0
M  V30 40 H 2.775753 0.583326 -0.037422 0
M  V30 41 H 2.129240 -1.036908 0.189016 0
M  V30 42 H 3.315637 0.158453 2.121830 0
M  V30 43 H 1.960847 -0.920634 2.503807 0
M  V30 44 H 0.003624 1.565945 -3.985033 0
M  V30 45 H 1.789655 0.473431 -3.955546 0
M  V30 46 H 0.043578 -2.355550 2.588057 0
M  V30 47 H -0.572040 -0.696604 2.748984 0
M  V30 48 H -1.694446 -2.141526 2.730950 0
M  V30 49 H -3.057360 -1.574540 -2.947196 0
M  V30 50 H -4.184373 -3.035647 -4.664538 0
M  V30 51 H -3.732919 -5.435626 -4.745600 0
M  V30 52 H -1.011894 -5.051584 -1.408829 0
M  V30 END ATOM
M  V30 BEGIN BOND
M  V30 1 1 1 2
M  V30 2 1 2 3
M  V30 3 1 3 4
M  V30 4 2 4 5
M  V30 5 1 4 6
M  V30 6 1 6 7
M  V30 7 1 7 8
M  V30 8 1 8 9
M  V30 9 1 9 10
M  V30 10 1 10 11
M  V30 11 1 9 12
M  V30 12 1 12 13
M  V30 13 3 13 14
M  V30 14 2 12 15
M  V30 15 1 15 16
M  V30 16 1 15 17
M  V30 17 1 17 18
M  V30 18 2 18 19
M  V30 19 1 19 20
M  V30 20 1 20 21
M  V30 21 2 20 22
M  V30 22 1 22 23
M  V30 23 1 23 24
M  V30 24 2 24 25
M  V30 25 1 25 26
M  V30 26 2 26 27
M  V30 27 1 27 28
M  V30 28 1 28 29
M  V30 29 2 28 30
M  V30 30 1 11 6
M  V30 31 1 23 18
M  V30 32 1 30 24
M  V30 33 1 19 9
M  V30 34 1 1 31
M  V30 35 1 1 32
M  V30 36 1 1 33
M  V30 37 1 2 34
M  V30 38 1 2 35
M  V30 39 1 7 36
M  V30 40 1 7 37
M  V30 41 1 8 38
M  V30 42 1 8 39
M  V30 43 1 10 40
M  V30 44 1 10 41
M  V30 45 1 11 42
M  V30 46 1 11 43
M  V30 47 1 16 44
M  V30 48 1 16 45
M  V30 49 1 21 46
M  V30 50 1 21 47
M  V30 51 1 21 48
M  V30 52 1 25 49
M  V30 53 1 26 50
M  V30 54 1 27 51
M  V30 55 1 30 52
M  V30 END BOND
M  V30 END CTAB
M  END
>  <Dataset>  (565) 
ChEMBL_Kinases

>  <Ligand_Instance>  (565) 
nan

>  <PDB_ID>  (565) 
nan

>  <Standardized_SMILES>  (565) 
CCOC(=O)N1CCC2(CC1)C(C#N)=C(N)Oc1c2c(C)nn1-c1cccc(Cl)c1

>  <Name>  (565) 
nan

>  <Pocket>  (565) 
nan

>  <ATP_Site>  (565) 
nan

>  <Peripheral>  (565) 
nan

>  <Num_H_Atoms_ProtBoundConf>  (565) 
nan

>  <Num_Resolved_Atoms>  (565) 
nan

>  <Num_Not_Resolved_Atoms>  (565) 
nan

$$$$
CHEMBL1425417
     RDKit          3D

  0  0  0  0  0  0  0  0  0  0999 V3000
M  V30 BEGIN CTAB
M  V30 COUNTS 34 35 0 0 0
M  V30 BEGIN ATOM
M  V30 1 C 0.794228 -5.725462 1.386787 0
M  V30 2 N 1.439117 -4.834833 0.408565 0
M  V30 3 C 1.132751 -3.424945 0.536616 0
M  V30 4 O 0.380201 -3.599446 1.519083 0
M  V30 5 C 1.810610 -2.648849 -0.461959 0
M  V30 6 N 2.649250 -3.002480 -1.450270 0
M  V30 7 C 2.951601 -1.845326 -2.041198 0
M  V30 8 N 2.338647 -0.820424 -1.458922 0
M  V30 9 C 1.578349 -1.295122 -0.417938 0
M  V30 10 C 0.875542 -0.226062 0.257711 0
M  V30 11 O 0.928334 1.022530 0.018592 0
M  V30 12 N -0.033376 -0.202251 1.323185 0
M  V30 13 C -0.432411 1.156232 1.602125 0
M  V30 14 C 0.199205 2.014219 2.483468 0
M  V30 15 C -0.293108 3.293924 2.653508 0
M  V30 16 C -1.420968 3.724033 1.942739 0
M  V30 17 C -2.031537 2.835967 1.064957 0
M  V30 18 O -3.133270 3.436823 0.450136 0
M  V30 19 C -3.862104 2.653099 -0.476167 0
M  V30 20 C -1.541652 1.556757 0.893205 0
M  V30 21 H -0.291294 -5.662353 1.198334 0
M  V30 22 H 1.118821 -6.752572 1.178114 0
M  V30 23 H 1.088152 -5.463128 2.429311 0
M  V30 24 H 2.088199 -5.275989 -0.330288 0
M  V30 25 H 2.945695 -3.982061 -1.643572 0
M  V30 26 H 3.626311 -1.883874 -2.881325 0
M  V30 27 H -0.271810 -1.130112 1.731096 0
M  V30 28 H 1.062700 1.605465 2.992672 0
M  V30 29 H 0.249491 3.914047 3.359236 0
M  V30 30 H -1.720067 4.742627 2.152107 0
M  V30 31 H -3.246248 2.645658 -1.415790 0
M  V30 32 H -4.884869 3.040681 -0.672249 0
M  V30 33 H -4.006146 1.616954 -0.072365 0
M  V30 34 H -2.089951 0.972790 0.198740 0
M  V30 END ATOM
M  V30 BEGIN BOND
M  V30 1 1 1 2
M  V30 2 1 2 3
M  V30 3 2 3 4
M  V30 4 1 3 5
M  V30 5 1 5 6
M  V30 6 1 6 7
M  V30 7 2 7 8
M  V30 8 1 8 9
M  V30 9 1 9 10
M  V30 10 2 10 11
M  V30 11 1 10 12
M  V30 12 1 12 13
M  V30 13 2 13 14
M  V30 14 1 14 15
M  V30 15 2 15 16
M  V30 16 1 16 17
M  V30 17 1 17 18
M  V30 18 1 18 19
M  V30 19 2 17 20
M  V30 20 2 9 5
M  V30 21 1 20 13
M  V30 22 1 1 21
M  V30 23 1 1 22
M  V30 24 1 1 23
M  V30 25 1 2 24
M  V30 26 1 6 25
M  V30 27 1 7 26
M  V30 28 1 12 27
M  V30 29 1 14 28
M  V30 30 1 15 29
M  V30 31 1 16 30
M  V30 32 1 19 31
M  V30 33 1 19 32
M  V30 34 1 19 33
M  V30 35 1 20 34
M  V30 END BOND
M  V30 END CTAB
M  END
>  <Dataset>  (566) 
ChEMBL_Kinases

>  <Ligand_Instance>  (566) 
nan

>  <PDB_ID>  (566) 
nan

>  <Standardized_SMILES>  (566) 
CNC(=O)c1[nH]cnc1C(=O)Nc1cccc(OC)c1

>  <Name>  (566) 
nan

>  <Pocket>  (566) 
nan

>  <ATP_Site>  (566) 
nan

>  <Peripheral>  (566) 
nan

>  <Num_H_Atoms_ProtBoundConf>  (566) 
nan

>  <Num_Resolved_Atoms>  (566) 
nan

>  <Num_Not_Resolved_Atoms>  (566) 
nan

$$$$
CHEMBL1425501
     RDKit          3D

  0  0  0  0  0  0  0  0  0  0999 V3000
M  V30 BEGIN CTAB
M  V30 COUNTS 56 57 0 0 0
M  V30 BEGIN ATOM
M  V30 1 C -0.040930 -8.238173 1.698322 0
M  V30 2 O 0.461140 -7.081627 2.299281 0
M  V30 3 C 0.828427 -5.972154 1.566531 0
M  V30 4 C 1.297815 -4.946966 2.378198 0
M  V30 5 C 1.722246 -3.740540 1.868296 0
M  V30 6 C 1.670883 -3.564154 0.495044 0
M  V30 7 C 2.112639 -2.290511 -0.114144 0
M  V30 8 N 0.951155 -1.382934 -0.192476 0
M  V30 9 C 1.397725 -0.194162 -0.770020 0
M  V30 10 C 0.563119 0.950243 -1.036108 0
M  V30 11 C -0.175162 1.698974 -0.012921 0
M  V30 12 C 0.798150 2.253955 0.995828 0
M  V30 13 C 0.161918 3.043384 2.096396 0
M  V30 14 C 1.883901 3.110748 0.441448 0
M  V30 15 C -0.775267 2.925027 -0.730528 0
M  V30 16 C -2.274570 2.969021 -0.630499 0
M  V30 17 O -2.797747 1.784208 -1.097102 0
M  V30 18 C -2.526751 0.778968 -0.177965 0
M  V30 19 C -3.725242 0.738335 0.768315 0
M  V30 20 C -2.507511 -0.508950 -0.932852 0
M  V30 21 C -1.322926 1.057441 0.666151 0
M  V30 22 C 1.205162 -4.574904 -0.338983 0
M  V30 23 C 0.786941 -5.772916 0.204500 0
M  V30 24 H -1.132117 -8.193299 1.484681 0
M  V30 25 H 0.133478 -9.165757 2.290063 0
M  V30 26 H 0.492759 -8.373099 0.720405 0
M  V30 27 H 1.377364 -4.987130 3.468587 0
M  V30 28 H 2.093558 -2.919441 2.465521 0
M  V30 29 H 2.792281 -1.782390 0.617832 0
M  V30 30 H 2.583564 -2.382283 -1.093897 0
M  V30 31 H 0.574393 -1.387525 0.768954 0
M  V30 32 H 1.925170 -0.504441 -1.722591 0
M  V30 33 H 2.287033 0.138790 -0.148139 0
M  V30 34 H 1.150991 1.726838 -1.616038 0
M  V30 35 H -0.200209 0.664614 -1.827810 0
M  V30 36 H 1.230617 1.341735 1.503371 0
M  V30 37 H -0.461692 3.899574 1.700861 0
M  V30 38 H 0.977624 3.572998 2.635407 0
M  V30 39 H -0.353376 2.453766 2.872075 0
M  V30 40 H 2.653316 3.180518 1.269471 0
M  V30 41 H 1.545538 4.164225 0.327043 0
M  V30 42 H 2.435106 2.747113 -0.414340 0
M  V30 43 H -0.333181 3.868249 -0.395396 0
M  V30 44 H -0.579386 2.900426 -1.823974 0
M  V30 45 H -2.588026 3.786545 -1.320812 0
M  V30 46 H -2.695186 3.205410 0.337394 0
M  V30 47 H -3.526458 1.288214 1.713508 0
M  V30 48 H -4.668117 0.984084 0.276432 0
M  V30 49 H -3.810628 -0.338841 1.098672 0
M  V30 50 H -1.823969 -1.282024 -0.527018 0
M  V30 51 H -2.362834 -0.340845 -2.041372 0
M  V30 52 H -3.517070 -0.987532 -0.893751 0
M  V30 53 H -1.145854 0.171792 1.267153 0
M  V30 54 H -1.678783 1.818586 1.430332 0
M  V30 55 H 1.146449 -4.486309 -1.405538 0
M  V30 56 H 0.406034 -6.630738 -0.338953 0
M  V30 END ATOM
M  V30 BEGIN BOND
M  V30 1 1 1 2
M  V30 2 1 2 3
M  V30 3 2 3 4
M  V30 4 1 4 5
M  V30 5 2 5 6
M  V30 6 1 6 7
M  V30 7 1 7 8
M  V30 8 1 8 9
M  V30 9 1 9 10
M  V30 10 1 10 11
M  V30 11 1 11 12
M  V30 12 1 12 13
M  V30 13 1 12 14
M  V30 14 1 11 15
M  V30 15 1 15 16
M  V30 16 1 16 17
M  V30 17 1 17 18
M  V30 18 1 18 19
M  V30 19 1 18 20
M  V30 20 1 18 21
M  V30 21 1 6 22
M  V30 22 2 22 23
M  V30 23 1 23 3
M  V30 24 1 21 11
M  V30 25 1 1 24
M  V30 26 1 1 25
M  V30 27 1 1 26
M  V30 28 1 4 27
M  V30 29 1 5 28
M  V30 30 1 7 29
M  V30 31 1 7 30
M  V30 32 1 8 31
M  V30 33 1 9 32
M  V30 34 1 9 33
M  V30 35 1 10 34
M  V30 36 1 10 35
M  V30 37 1 12 36
M  V30 38 1 13 37
M  V30 39 1 13 38
M  V30 40 1 13 39
M  V30 41 1 14 40
M  V30 42 1 14 41
M  V30 43 1 14 42
M  V30 44 1 15 43
M  V30 45 1 15 44
M  V30 46 1 16 45
M  V30 47 1 16 46
M  V30 48 1 19 47
M  V30 49 1 19 48
M  V30 50 1 19 49
M  V30 51 1 20 50
M  V30 52 1 20 51
M  V30 53 1 20 52
M  V30 54 1 21 53
M  V30 55 1 21 54
M  V30 56 1 22 55
M  V30 57 1 23 56
M  V30 END BOND
M  V30 END CTAB
M  END
>  <Dataset>  (567) 
ChEMBL_Kinases

>  <Ligand_Instance>  (567) 
nan

>  <PDB_ID>  (567) 
nan

>  <Standardized_SMILES>  (567) 
COc1ccc(CNCCC2(C(C)C)CCOC(C)(C)C2)cc1

>  <Name>  (567) 
nan

>  <Pocket>  (567) 
nan

>  <ATP_Site>  (567) 
nan

>  <Peripheral>  (567) 
nan

>  <Num_H_Atoms_ProtBoundConf>  (567) 
nan

>  <Num_Resolved_Atoms>  (567) 
nan

>  <Num_Not_Resolved_Atoms>  (567) 
nan

$$$$
CHEMBL1425704
     RDKit          3D

  0  0  0  0  0  0  0  0  0  0999 V3000
M  V30 BEGIN CTAB
M  V30 COUNTS 40 42 0 0 0
M  V30 BEGIN ATOM
M  V30 1 C 0.482148 -5.535410 0.739800 0
M  V30 2 O 0.494799 -4.147611 0.420240 0
M  V30 3 C 1.720252 -3.483096 0.237617 0
M  V30 4 C 2.994067 -3.966324 0.320999 0
M  V30 5 C 4.103286 -3.184555 0.112945 0
M  V30 6 C 3.852512 -1.848278 -0.192263 0
M  V30 7 C 2.583463 -1.312294 -0.287413 0
M  V30 8 C 2.381223 0.090872 -0.625478 0
M  V30 9 N 3.355009 0.954716 -0.924893 0
M  V30 10 N 2.784606 2.137983 -1.177718 0
M  V30 11 C 1.455315 1.988674 -1.029138 0
M  V30 12 S 0.461043 3.437074 -1.314056 0
M  V30 13 C -1.290265 3.168291 -0.994269 0
M  V30 14 C -1.594197 2.993907 0.429538 0
M  V30 15 O -1.640181 4.168631 0.951893 0
M  V30 16 N -1.825690 1.818415 1.246275 0
M  V30 17 C -1.862829 0.382400 1.045756 0
M  V30 18 C -0.911195 -0.223881 2.050050 0
M  V30 19 O -1.461768 -0.072476 3.316363 0
M  V30 20 C -2.429195 0.895144 3.377920 0
M  V30 21 C -2.098672 2.143907 2.641206 0
M  V30 22 O 1.229785 0.726244 -0.690862 0
M  V30 23 C 1.472123 -2.138368 -0.069390 0
M  V30 24 H -0.488762 -5.849406 1.156526 0
M  V30 25 H 0.652054 -6.070443 -0.214502 0
M  V30 26 H 1.295190 -5.770403 1.466637 0
M  V30 27 H 2.996610 -5.022185 0.568192 0
M  V30 28 H 5.078572 -3.629235 0.194936 0
M  V30 29 H 4.739753 -1.239224 -0.354582 0
M  V30 30 H -1.852635 4.017649 -1.402801 0
M  V30 31 H -1.648291 2.281760 -1.603679 0
M  V30 32 H -1.610190 0.085787 0.006220 0
M  V30 33 H -2.893532 -0.029882 1.220380 0
M  V30 34 H 0.063458 0.299895 2.045417 0
M  V30 35 H -0.806299 -1.296298 1.774591 0
M  V30 36 H -3.389760 0.443279 3.124931 0
M  V30 37 H -2.518588 1.163015 4.475113 0
M  V30 38 H -2.983958 2.815008 2.726790 0
M  V30 39 H -1.200538 2.609193 3.103621 0
M  V30 40 H 0.514755 -1.650921 -0.167084 0
M  V30 END ATOM
M  V30 BEGIN BOND
M  V30 1 1 1 2
M  V30 2 1 2 3
M  V30 3 2 3 4
M  V30 4 1 4 5
M  V30 5 2 5 6
M  V30 6 1 6 7
M  V30 7 1 7 8
M  V30 8 2 8 9
M  V30 9 1 9 10
M  V30 10 2 10 11
M  V30 11 1 11 12
M  V30 12 1 12 13
M  V30 13 1 13 14
M  V30 14 2 14 15
M  V30 15 1 14 16
M  V30 16 1 16 17
M  V30 17 1 17 18
M  V30 18 1 18 19
M  V30 19 1 19 20
M  V30 20 1 20 21
M  V30 21 1 11 22
M  V30 22 2 7 23
M  V30 23 1 23 3
M  V30 24 1 22 8
M  V30 25 1 21 16
M  V30 26 1 1 24
M  V30 27 1 1 25
M  V30 28 1 1 26
M  V30 29 1 4 27
M  V30 30 1 5 28
M  V30 31 1 6 29
M  V30 32 1 13 30
M  V30 33 1 13 31
M  V30 34 1 17 32
M  V30 35 1 17 33
M  V30 36 1 18 34
M  V30 37 1 18 35
M  V30 38 1 20 36
M  V30 39 1 20 37
M  V30 40 1 21 38
M  V30 41 1 21 39
M  V30 42 1 23 40
M  V30 END BOND
M  V30 END CTAB
M  END
>  <Dataset>  (568) 
ChEMBL_Kinases

>  <Ligand_Instance>  (568) 
nan

>  <PDB_ID>  (568) 
nan

>  <Standardized_SMILES>  (568) 
COc1cccc(-c2nnc(SCC(=O)N3CCOCC3)o2)c1

>  <Name>  (568) 
nan

>  <Pocket>  (568) 
nan

>  <ATP_Site>  (568) 
nan

>  <Peripheral>  (568) 
nan

>  <Num_H_Atoms_ProtBoundConf>  (568) 
nan

>  <Num_Resolved_Atoms>  (568) 
nan

>  <Num_Not_Resolved_Atoms>  (568) 
nan

$$$$
CHEMBL1425782
     RDKit          3D

  0  0  0  0  0  0  0  0  0  0999 V3000
M  V30 BEGIN CTAB
M  V30 COUNTS 93 93 0 0 0
M  V30 BEGIN ATOM
M  V30 1 C 5.144221 -4.193029 2.967995 0
M  V30 2 C 4.950608 -5.506106 2.319406 0
M  V30 3 C 4.766599 -5.473442 0.856046 0
M  V30 4 C 5.733262 -5.035826 -0.110551 0
M  V30 5 C 6.336071 -3.756357 -0.400717 0
M  V30 6 C 7.136721 -2.972619 0.554555 0
M  V30 7 C 7.682226 -1.700790 -0.156281 0
M  V30 8 C 5.372162 -2.797109 -1.111348 0
M  V30 9 O 4.220510 -2.517676 -0.362885 0
M  V30 10 C 3.209154 -1.671117 -0.802800 0
M  V30 11 O 3.565668 -1.259841 -1.935562 0
M  V30 12 C 2.011607 -1.386524 -0.021405 0
M  V30 13 C 1.812888 -1.959667 1.217107 0
M  V30 14 C 0.670436 -1.670167 1.928533 0
M  V30 15 C -0.279228 -0.812096 1.414845 0
M  V30 16 C -1.418050 -0.601612 2.268559 0
M  V30 17 O -1.616724 -1.112887 3.394838 0
M  V30 18 O -2.564029 0.142397 2.178000 0
M  V30 19 C -3.547057 0.152866 3.217833 0
M  V30 20 C -4.690449 1.042121 2.858177 0
M  V30 21 C -4.172753 2.448386 2.658270 0
M  V30 22 C -3.526138 2.923790 3.958960 0
M  V30 23 C -5.381590 0.624587 1.583381 0
M  V30 24 C -5.952035 -0.770552 1.671541 0
M  V30 25 C -6.633022 -1.141434 0.370053 0
M  V30 26 C -7.223421 -2.512338 0.396450 0
M  V30 27 C -0.017807 -0.278288 0.178441 0
M  V30 28 C -1.019208 0.620573 -0.359345 0
M  V30 29 O -2.099229 1.174070 -0.201846 0
M  V30 30 O -0.906216 1.249091 -1.589682 0
M  V30 31 C -1.919663 2.140986 -2.098719 0
M  V30 32 C -1.498456 2.666352 -3.459683 0
M  V30 33 C -0.168199 3.379375 -3.202003 0
M  V30 34 C -0.450731 4.477932 -2.200710 0
M  V30 35 C -1.323323 1.618753 -4.485402 0
M  V30 36 C -2.481238 0.788376 -4.872572 0
M  V30 37 C -3.636190 1.434305 -5.534254 0
M  V30 38 C -4.350793 2.497287 -4.780099 0
M  V30 39 C 1.095651 -0.521940 -0.583071 0
M  V30 40 H 4.653990 -3.428263 2.366770 0
M  V30 41 H 4.765856 -4.177394 4.034099 0
M  V30 42 H 6.228380 -3.999266 3.084886 0
M  V30 43 H 5.752353 -6.251187 2.627407 0
M  V30 44 H 4.028215 -5.993461 2.809857 0
M  V30 45 H 3.742148 -4.959160 0.718798 0
M  V30 46 H 4.411626 -6.562250 0.608415 0
M  V30 47 H 6.661053 -5.772983 -0.027758 0
M  V30 48 H 5.345458 -5.491051 -1.133643 0
M  V30 49 H 7.089286 -3.969816 -1.270590 0
M  V30 50 H 6.466608 -2.505637 1.323352 0
M  V30 51 H 7.966568 -3.532621 0.987168 0
M  V30 52 H 7.903077 -1.889112 -1.215247 0
M  V30 53 H 8.681240 -1.447312 0.317367 0
M  V30 54 H 7.028861 -0.846781 -0.050136 0
M  V30 55 H 5.140468 -3.233508 -2.108178 0
M  V30 56 H 5.911783 -1.871179 -1.307025 0
M  V30 57 H 2.556413 -2.628898 1.612033 0
M  V30 58 H 0.584907 -2.159036 2.895081 0
M  V30 59 H -3.053728 0.517824 4.129741 0
M  V30 60 H -3.943146 -0.866622 3.405140 0
M  V30 61 H -5.438240 1.021536 3.671402 0
M  V30 62 H -4.998011 3.136743 2.349611 0
M  V30 63 H -3.422712 2.413045 1.842703 0
M  V30 64 H -2.413975 2.900244 3.839300 0
M  V30 65 H -3.880327 3.946140 4.153025 0
M  V30 66 H -3.804563 2.288063 4.803862 0
M  V30 67 H -4.723254 0.730477 0.711792 0
M  V30 68 H -6.236081 1.334482 1.432056 0
M  V30 69 H -5.162372 -1.514079 1.903342 0
M  V30 70 H -6.697262 -0.829488 2.493128 0
M  V30 71 H -7.430759 -0.399421 0.166866 0
M  V30 72 H -5.917528 -1.089879 -0.480488 0
M  V30 73 H -8.197369 -2.487817 -0.136519 0
M  V30 74 H -6.595030 -3.258256 -0.158419 0
M  V30 75 H -7.439507 -2.880507 1.419398 0
M  V30 76 H -2.795141 1.482997 -2.241491 0
M  V30 77 H -2.139795 2.946081 -1.403329 0
M  V30 78 H -2.196611 3.489934 -3.723373 0
M  V30 79 H 0.319999 3.733758 -4.106044 0
M  V30 80 H 0.477869 2.646054 -2.699009 0
M  V30 81 H -0.246256 4.142653 -1.145868 0
M  V30 82 H -1.522357 4.775367 -2.191839 0
M  V30 83 H 0.162620 5.339896 -2.454132 0
M  V30 84 H -0.509802 0.924026 -4.146808 0
M  V30 85 H -0.866903 2.119569 -5.400215 0
M  V30 86 H -2.091857 -0.033085 -5.558483 0
M  V30 87 H -2.839674 0.190527 -3.983110 0
M  V30 88 H -4.394567 0.610310 -5.747039 0
M  V30 89 H -3.378720 1.789458 -6.583135 0
M  V30 90 H -5.470180 2.466814 -5.010244 0
M  V30 91 H -4.067828 3.532313 -5.139355 0
M  V30 92 H -4.319712 2.420484 -3.687849 0
M  V30 93 H 1.200688 -0.049697 -1.541507 0
M  V30 END ATOM
M  V30 BEGIN BOND
M  V30 1 1 1 2
M  V30 2 1 2 3
M  V30 3 1 3 4
M  V30 4 1 4 5
M  V30 5 1 5 6
M  V30 6 1 6 7
M  V30 7 1 5 8
M  V30 8 1 8 9
M  V30 9 1 9 10
M  V30 10 2 10 11
M  V30 11 1 10 12
M  V30 12 2 12 13
M  V30 13 1 13 14
M  V30 14 2 14 15
M  V30 15 1 15 16
M  V30 16 2 16 17
M  V30 17 1 16 18
M  V30 18 1 18 19
M  V30 19 1 19 20
M  V30 20 1 20 21
M  V30 21 1 21 22
M  V30 22 1 20 23
M  V30 23 1 23 24
M  V30 24 1 24 25
M  V30 25 1 25 26
M  V30 26 1 15 27
M  V30 27 1 27 28
M  V30 28 2 28 29
M  V30 29 1 28 30
M  V30 30 1 30 31
M  V30 31 1 31 32
M  V30 32 1 32 33
M  V30 33 1 33 34
M  V30 34 1 32 35
M  V30 35 1 35 36
M  V30 36 1 36 37
M  V30 37 1 37 38
M  V30 38 2 27 39
M  V30 39 1 39 12
M  V30 40 1 1 40
M  V30 41 1 1 41
M  V30 42 1 1 42
M  V30 43 1 2 43
M  V30 44 1 2 44
M  V30 45 1 3 45
M  V30 46 1 3 46
M  V30 47 1 4 47
M  V30 48 1 4 48
M  V30 49 1 5 49
M  V30 50 1 6 50
M  V30 51 1 6 51
M  V30 52 1 7 52
M  V30 53 1 7 53
M  V30 54 1 7 54
M  V30 55 1 8 55
M  V30 56 1 8 56
M  V30 57 1 13 57
M  V30 58 1 14 58
M  V30 59 1 19 59
M  V30 60 1 19 60
M  V30 61 1 20 61
M  V30 62 1 21 62
M  V30 63 1 21 63
M  V30 64 1 22 64
M  V30 65 1 22 65
M  V30 66 1 22 66
M  V30 67 1 23 67
M  V30 68 1 23 68
M  V30 69 1 24 69
M  V30 70 1 24 70
M  V30 71 1 25 71
M  V30 72 1 25 72
M  V30 73 1 26 73
M  V30 74 1 26 74
M  V30 75 1 26 75
M  V30 76 1 31 76
M  V30 77 1 31 77
M  V30 78 1 32 78
M  V30 79 1 33 79
M  V30 80 1 33 80
M  V30 81 1 34 81
M  V30 82 1 34 82
M  V30 83 1 34 83
M  V30 84 1 35 84
M  V30 85 1 35 85
M  V30 86 1 36 86
M  V30 87 1 36 87
M  V30 88 1 37 88
M  V30 89 1 37 89
M  V30 90 1 38 90
M  V30 91 1 38 91
M  V30 92 1 38 92
M  V30 93 1 39 93
M  V30 END BOND
M  V30 END CTAB
M  END
>  <Dataset>  (569) 
ChEMBL_Kinases

>  <Ligand_Instance>  (569) 
nan

>  <PDB_ID>  (569) 
nan

>  <Standardized_SMILES>  (569) 
CCCCC(CC)COC(=O)c1ccc(C(=O)OCC(CC)CCCC)c(C(=O)OCC(CC)CCCC)c1

>  <Name>  (569) 
nan

>  <Pocket>  (569) 
nan

>  <ATP_Site>  (569) 
nan

>  <Peripheral>  (569) 
nan

>  <Num_H_Atoms_ProtBoundConf>  (569) 
nan

>  <Num_Resolved_Atoms>  (569) 
nan

>  <Num_Not_Resolved_Atoms>  (569) 
nan

$$$$
CHEMBL1425875
     RDKit          3D

  0  0  0  0  0  0  0  0  0  0999 V3000
M  V30 BEGIN CTAB
M  V30 COUNTS 46 49 0 0 0
M  V30 BEGIN ATOM
M  V30 1 O 1.750204 -2.456554 2.429365 0
M  V30 2 C 0.830575 -1.523000 2.014854 0
M  V30 3 C 0.581579 -0.351011 2.694522 0
M  V30 4 N 1.234055 0.059157 3.913117 0
M  V30 5 N 2.391170 0.628338 3.855426 0
M  V30 6 C 2.996304 0.835690 2.560556 0
M  V30 7 S 4.373567 -0.261391 2.177921 0
M  V30 8 N 2.282496 1.790159 2.127928 0
M  V30 9 C 2.364250 2.460552 0.902763 0
M  V30 10 C 2.405345 1.602970 -0.201850 0
M  V30 11 C 2.486013 2.134455 -1.482872 0
M  V30 12 C 2.521349 3.514023 -1.585398 0
M  V30 13 C 2.480967 4.352697 -0.501351 0
M  V30 14 C 2.400461 3.834560 0.782304 0
M  V30 15 F 2.351617 4.511055 1.955712 0
M  V30 16 C -0.390299 0.290171 1.955965 0
M  V30 17 C -1.003081 1.503938 2.185540 0
M  V30 18 C -1.959357 1.966438 1.310808 0
M  V30 19 C -2.282357 1.193647 0.215104 0
M  V30 20 C -1.632458 -0.009569 0.044110 0
M  V30 21 C -0.666809 -0.530475 0.881222 0
M  V30 22 N 0.078785 -1.649156 0.907941 0
M  V30 23 C -0.027795 -2.658379 -0.116902 0
M  V30 24 C -1.049141 -3.692019 0.160868 0
M  V30 25 C -2.259128 -3.593243 -0.531171 0
M  V30 26 C -3.298351 -4.476600 -0.374698 0
M  V30 27 C -3.183564 -5.539202 0.507481 0
M  V30 28 C -1.995843 -5.651031 1.198078 0
M  V30 29 C -0.969518 -4.749721 1.020940 0
M  V30 30 F 0.163563 -4.907297 1.710154 0
M  V30 31 H 1.739081 -2.767947 3.386084 0
M  V30 32 H 4.117659 -1.007921 1.003763 0
M  V30 33 H 2.377895 0.526492 -0.126677 0
M  V30 34 H 2.518786 1.495586 -2.345137 0
M  V30 35 H 2.584188 3.951482 -2.573617 0
M  V30 36 H 2.506758 5.433217 -0.543250 0
M  V30 37 H -0.767926 2.130955 3.038406 0
M  V30 38 H -2.444766 2.901680 1.470075 0
M  V30 39 H -3.027825 1.567775 -0.455061 0
M  V30 40 H -1.944536 -0.548630 -0.838295 0
M  V30 41 H 0.983457 -3.163272 -0.149560 0
M  V30 42 H -0.166059 -2.208817 -1.129100 0
M  V30 43 H -2.509025 -2.828208 -1.253285 0
M  V30 44 H -4.243318 -4.434168 -0.888002 0
M  V30 45 H -3.959437 -6.256081 0.668653 0
M  V30 46 H -1.851231 -6.467812 1.904464 0
M  V30 END ATOM
M  V30 BEGIN BOND
M  V30 1 1 1 2
M  V30 2 2 2 3
M  V30 3 1 3 4
M  V30 4 2 4 5 CFG=2
M  V30 5 1 5 6
M  V30 6 1 6 7
M  V30 7 2 6 8 CFG=2
M  V30 8 1 8 9
M  V30 9 2 9 10
M  V30 10 1 10 11
M  V30 11 2 11 12
M  V30 12 1 12 13
M  V30 13 2 13 14
M  V30 14 1 14 15
M  V30 15 1 3 16
M  V30 16 2 16 17
M  V30 17 1 17 18
M  V30 18 2 18 19
M  V30 19 1 19 20
M  V30 20 2 20 21
M  V30 21 1 21 22
M  V30 22 1 22 23
M  V30 23 1 23 24
M  V30 24 2 24 25
M  V30 25 1 25 26
M  V30 26 2 26 27
M  V30 27 1 27 28
M  V30 28 2 28 29
M  V30 29 1 29 30
M  V30 30 1 22 2
M  V30 31 1 29 24
M  V30 32 1 14 9
M  V30 33 1 21 16
M  V30 34 1 1 31
M  V30 35 1 7 32
M  V30 36 1 10 33
M  V30 37 1 11 34
M  V30 38 1 12 35
M  V30 39 1 13 36
M  V30 40 1 17 37
M  V30 41 1 18 38
M  V30 42 1 19 39
M  V30 43 1 20 40
M  V30 44 1 23 41
M  V30 45 1 23 42
M  V30 46 1 25 43
M  V30 47 1 26 44
M  V30 48 1 27 45
M  V30 49 1 28 46
M  V30 END BOND
M  V30 END CTAB
M  END
>  <Dataset>  (570) 
ChEMBL_Kinases

>  <Ligand_Instance>  (570) 
nan

>  <PDB_ID>  (570) 
nan

>  <Standardized_SMILES>  (570) 
Oc1c(N=NC(S)=Nc2ccccc2F)c2ccccc2n1Cc1ccccc1F

>  <Name>  (570) 
nan

>  <Pocket>  (570) 
nan

>  <ATP_Site>  (570) 
nan

>  <Peripheral>  (570) 
nan

>  <Num_H_Atoms_ProtBoundConf>  (570) 
nan

>  <Num_Resolved_Atoms>  (570) 
nan

>  <Num_Not_Resolved_Atoms>  (570) 
nan

$$$$
CHEMBL14249
     RDKit          3D

  0  0  0  0  0  0  0  0  0  0999 V3000
M  V30 BEGIN CTAB
M  V30 COUNTS 47 49 0 0 0
M  V30 BEGIN ATOM
M  V30 1 N 3.404675 -3.395286 2.252973 0
M  V30 2 C 3.237614 -1.995735 2.446173 0
M  V30 3 N 3.618821 -1.401534 3.601241 0
M  V30 4 C 3.451152 -0.076071 3.761792 0
M  V30 5 N 2.911010 0.691770 2.803409 0
M  V30 6 C 2.509406 0.164421 1.628103 0
M  V30 7 C 2.682376 -1.210633 1.459240 0
M  V30 8 N 2.226037 -1.542832 0.236253 0
M  V30 9 C 1.769922 -0.413956 -0.370586 0
M  V30 10 N 1.945477 0.607009 0.476230 0
M  V30 11 C 1.650472 2.008995 0.366799 0 CFG=2
M  V30 12 O 0.822659 2.372154 1.407572 0
M  V30 13 C -0.352536 2.849097 0.928265 0 CFG=2
M  V30 14 C -1.531127 1.967965 1.323054 0
M  V30 15 O -1.333100 0.701600 0.813221 0
M  V30 16 P -2.539229 -0.396908 1.155546 0
M  V30 17 O -3.773849 0.207936 1.773970 0
M  V30 18 O -2.975300 -1.204540 -0.281142 0
M  V30 19 O -1.942832 -1.548606 2.232236 0
M  V30 20 P -2.641763 -3.065051 1.965470 0
M  V30 21 O -4.065976 -3.051939 2.486186 0
M  V30 22 O -1.752761 -4.246053 2.786742 0
M  V30 23 O -2.663946 -3.375761 0.316108 0
M  V30 24 P -1.829592 -4.787516 -0.074837 0
M  V30 25 O -2.400807 -5.959186 0.674139 0
M  V30 26 O -1.948225 -5.045719 -1.735731 0
M  V30 27 O -0.197256 -4.672152 0.347023 0
M  V30 28 C -0.289886 2.982115 -0.562882 0 CFG=1
M  V30 29 O -0.480182 4.296850 -0.983136 0
M  V30 30 C 1.066864 2.432126 -0.926960 0 CFG=1
M  V30 31 O 1.783854 3.519028 -1.477612 0
M  V30 32 H 2.755891 -4.037174 1.750066 0
M  V30 33 H 4.176437 -4.014559 2.566048 0
M  V30 34 H 3.738776 0.466113 4.672844 0
M  V30 35 H 1.340804 -0.319496 -1.349182 0
M  V30 36 H 2.640796 2.531790 0.492908 0
M  V30 37 H -0.554360 3.853849 1.372912 0
M  V30 38 H -2.480785 2.440933 1.075339 0
M  V30 39 H -1.491916 1.904945 2.448879 0
M  V30 40 H -2.332412 -1.036287 -1.009880 0
M  V30 41 H -1.280547 -3.870655 3.577070 0
M  V30 42 H -2.239842 -4.231028 -2.236524 0
M  V30 43 H 0.287537 -5.441213 0.005174 0
M  V30 44 H -1.056406 2.364001 -1.062392 0
M  V30 45 H -1.433097 4.424508 -1.176719 0
M  V30 46 H 0.989960 1.659914 -1.694506 0
M  V30 47 H 1.167280 3.948500 -2.139296 0
M  V30 END ATOM
M  V30 BEGIN BOND
M  V30 1 1 1 2
M  V30 2 2 2 3
M  V30 3 1 3 4
M  V30 4 2 4 5
M  V30 5 1 5 6
M  V30 6 2 6 7
M  V30 7 1 7 8
M  V30 8 2 8 9
M  V30 9 1 9 10
M  V30 10 1 10 11
M  V30 11 1 11 12
M  V30 12 1 12 13
M  V30 13 1 13 14
M  V30 14 1 14 15
M  V30 15 1 15 16
M  V30 16 2 16 17
M  V30 17 1 16 18
M  V30 18 1 16 19
M  V30 19 1 19 20
M  V30 20 2 20 21
M  V30 21 1 20 22
M  V30 22 1 20 23
M  V30 23 1 23 24
M  V30 24 2 24 25
M  V30 25 1 24 26
M  V30 26 1 24 27
M  V30 27 1 13 28
M  V30 28 1 28 29
M  V30 29 1 28 30
M  V30 30 1 30 31
M  V30 31 1 7 2
M  V30 32 1 30 11
M  V30 33 1 10 6
M  V30 34 1 1 32
M  V30 35 1 1 33
M  V30 36 1 4 34
M  V30 37 1 9 35
M  V30 38 1 11 36 CFG=1
M  V30 39 1 13 37 CFG=1
M  V30 40 1 14 38
M  V30 41 1 14 39
M  V30 42 1 18 40
M  V30 43 1 22 41
M  V30 44 1 26 42
M  V30 45 1 27 43
M  V30 46 1 28 44 CFG=3
M  V30 47 1 29 45
M  V30 48 1 30 46 CFG=3
M  V30 49 1 31 47
M  V30 END BOND
M  V30 END CTAB
M  END
>  <Dataset>  (571) 
ChEMBL_Kinases

>  <Ligand_Instance>  (571) 
nan

>  <PDB_ID>  (571) 
nan

>  <Standardized_SMILES>  (571) 
Nc1ncnc2c1ncn2[C@@H]1O[C@H](COP(=O)(O)OP(=O)(O)OP(=O)(O)O)[C@@H](O)[C@H]1O

>  <Name>  (571) 
ADENOSINE TRIPHOSPHATE

>  <Pocket>  (571) 
nan

>  <ATP_Site>  (571) 
nan

>  <Peripheral>  (571) 
nan

>  <Num_H_Atoms_ProtBoundConf>  (571) 
nan

>  <Num_Resolved_Atoms>  (571) 
nan

>  <Num_Not_Resolved_Atoms>  (571) 
nan

$$$$
CHEMBL1429337
     RDKit          3D

  0  0  0  0  0  0  0  0  0  0999 V3000
M  V30 BEGIN CTAB
M  V30 COUNTS 36 36 0 0 0
M  V30 BEGIN ATOM
M  V30 1 C -0.432430 -2.907789 3.175155 0
M  V30 2 C -0.710287 -3.713918 1.938084 0
M  V30 3 C -0.391709 -5.153146 2.248655 0
M  V30 4 C 0.146000 -3.267464 0.765665 0 CFG=2
M  V30 5 N -0.093170 -1.880718 0.434100 0
M  V30 6 C 0.920183 -0.880792 0.343627 0
M  V30 7 O 2.157639 -1.117835 0.550260 0
M  V30 8 N 0.606404 0.471531 0.010188 0
M  V30 9 C 1.681642 1.445691 -0.066966 0
M  V30 10 C 1.188876 2.782925 -0.419506 0
M  V30 11 C 1.055167 3.280270 -1.712333 0
M  V30 12 C 0.582236 4.554624 -1.970455 0
M  V30 13 C 0.239943 5.332933 -0.875491 0
M  V30 14 F -0.226984 6.591488 -1.134319 0
M  V30 15 C 0.353318 4.888949 0.418811 0
M  V30 16 C 0.828824 3.611533 0.644000 0
M  V30 17 C -0.285319 -4.099475 -0.392249 0
M  V30 18 O -0.718785 -3.290531 -1.279640 0
M  V30 19 O -0.597534 -5.109914 -1.298962 0
M  V30 20 H -0.852334 -1.872592 3.057001 0
M  V30 21 H 0.641613 -2.889882 3.443478 0
M  V30 22 H -0.938249 -3.405310 4.027244 0
M  V30 23 H -1.787316 -3.610395 1.698378 0
M  V30 24 H 0.305633 -5.241355 3.101563 0
M  V30 25 H -1.332515 -5.680390 2.508617 0
M  V30 26 H 0.006429 -5.618030 1.324217 0
M  V30 27 H 1.213253 -3.482926 0.946516 0
M  V30 28 H -1.094849 -1.651217 0.258664 0
M  V30 29 H -0.419982 0.682154 -0.164209 0
M  V30 30 H 2.318596 1.430132 0.833704 0
M  V30 31 H 2.368013 1.124301 -0.903643 0
M  V30 32 H 1.342903 2.613873 -2.525071 0
M  V30 33 H 0.487882 4.917086 -2.984963 0
M  V30 34 H 0.066806 5.554069 1.214246 0
M  V30 35 H 0.917577 3.262359 1.672570 0
M  V30 36 H -1.333810 -5.797112 -1.091949 0
M  V30 END ATOM
M  V30 BEGIN BOND
M  V30 1 1 1 2
M  V30 2 1 2 3
M  V30 3 1 2 4
M  V30 4 1 4 5
M  V30 5 1 5 6
M  V30 6 2 6 7
M  V30 7 1 6 8
M  V30 8 1 8 9
M  V30 9 1 9 10
M  V30 10 2 10 11
M  V30 11 1 11 12
M  V30 12 2 12 13
M  V30 13 1 13 14
M  V30 14 1 13 15
M  V30 15 2 15 16
M  V30 16 1 4 17
M  V30 17 2 17 18
M  V30 18 1 17 19
M  V30 19 1 16 10
M  V30 20 1 1 20
M  V30 21 1 1 21
M  V30 22 1 1 22
M  V30 23 1 2 23
M  V30 24 1 3 24
M  V30 25 1 3 25
M  V30 26 1 3 26
M  V30 27 1 4 27 CFG=1
M  V30 28 1 5 28
M  V30 29 1 8 29
M  V30 30 1 9 30
M  V30 31 1 9 31
M  V30 32 1 11 32
M  V30 33 1 12 33
M  V30 34 1 15 34
M  V30 35 1 16 35
M  V30 36 1 19 36
M  V30 END BOND
M  V30 END CTAB
M  END
>  <Dataset>  (572) 
ChEMBL_Kinases

>  <Ligand_Instance>  (572) 
nan

>  <PDB_ID>  (572) 
nan

>  <Standardized_SMILES>  (572) 
CC(C)[C@H](NC(=O)NCc1ccc(F)cc1)C(=O)O

>  <Name>  (572) 
nan

>  <Pocket>  (572) 
nan

>  <ATP_Site>  (572) 
nan

>  <Peripheral>  (572) 
nan

>  <Num_H_Atoms_ProtBoundConf>  (572) 
nan

>  <Num_Resolved_Atoms>  (572) 
nan

>  <Num_Not_Resolved_Atoms>  (572) 
nan

$$$$
CHEMBL1429330
     RDKit          3D

  0  0  0  0  0  0  0  0  0  0999 V3000
M  V30 BEGIN CTAB
M  V30 COUNTS 28 30 0 0 0
M  V30 BEGIN ATOM
M  V30 1 O -0.023098 -2.085371 3.022659 0
M  V30 2 C 0.593026 -2.854062 2.241838 0
M  V30 3 N 1.359889 -2.169674 1.276529 0
M  V30 4 C 1.439119 -0.745128 1.182246 0
M  V30 5 N 2.484787 -0.195478 1.949491 0
M  V30 6 S 2.255894 1.629445 1.567293 0
M  V30 7 C 0.813930 1.240970 0.468574 0
M  V30 8 C 0.130020 2.440752 -0.204969 0
M  V30 9 C 0.555041 3.724796 -0.009903 0
M  V30 10 C -0.183954 4.688345 -0.701055 0
M  V30 11 C -1.245015 4.330500 -1.501656 0
M  V30 12 C -1.638274 3.026423 -1.669371 0
M  V30 13 C -0.922875 2.037434 -0.994094 0
M  V30 14 N 0.684174 0.092274 0.492372 0
M  V30 15 C 0.773690 -4.323471 2.007928 0
M  V30 16 C 0.065894 -5.073249 2.898451 0
M  V30 17 C -0.008498 -6.423100 2.987020 0
M  V30 18 C 0.876541 -6.964647 1.867646 0
M  V30 19 S 1.601719 -5.434654 0.958265 0
M  V30 20 H 1.976591 -2.530227 0.496598 0
M  V30 21 H 1.390012 3.917923 0.629849 0
M  V30 22 H 0.127478 5.735228 -0.569806 0
M  V30 23 H -1.810564 5.102780 -2.034444 0
M  V30 24 H -2.462760 2.760444 -2.292791 0
M  V30 25 H -1.232998 1.010464 -1.126501 0
M  V30 26 H -0.611253 -4.892402 3.753955 0
M  V30 27 H -0.177192 -7.454484 3.195890 0
M  V30 28 H 1.394280 -7.844817 1.210598 0
M  V30 END ATOM
M  V30 BEGIN BOND
M  V30 1 2 1 2
M  V30 2 1 2 3
M  V30 3 1 3 4
M  V30 4 2 4 5
M  V30 5 1 5 6
M  V30 6 1 6 7
M  V30 7 1 7 8
M  V30 8 2 8 9
M  V30 9 1 9 10
M  V30 10 2 10 11
M  V30 11 1 11 12
M  V30 12 2 12 13
M  V30 13 2 7 14
M  V30 14 1 2 15
M  V30 15 2 15 16
M  V30 16 1 16 17
M  V30 17 2 17 18
M  V30 18 1 18 19
M  V30 19 1 14 4
M  V30 20 1 19 15
M  V30 21 1 13 8
M  V30 22 1 3 20
M  V30 23 1 9 21
M  V30 24 1 10 22
M  V30 25 1 11 23
M  V30 26 1 12 24
M  V30 27 1 13 25
M  V30 28 1 16 26
M  V30 29 1 17 27
M  V30 30 1 18 28
M  V30 END BOND
M  V30 END CTAB
M  END
>  <Dataset>  (573) 
ChEMBL_Kinases

>  <Ligand_Instance>  (573) 
nan

>  <PDB_ID>  (573) 
nan

>  <Standardized_SMILES>  (573) 
O=C(Nc1nsc(-c2ccccc2)n1)c1cccs1

>  <Name>  (573) 
nan

>  <Pocket>  (573) 
nan

>  <ATP_Site>  (573) 
nan

>  <Peripheral>  (573) 
nan

>  <Num_H_Atoms_ProtBoundConf>  (573) 
nan

>  <Num_Resolved_Atoms>  (573) 
nan

>  <Num_Not_Resolved_Atoms>  (573) 
nan

$$$$
CHEMBL1429270
     RDKit          3D

  0  0  0  0  0  0  0  0  0  0999 V3000
M  V30 BEGIN CTAB
M  V30 COUNTS 57 59 0 0 0
M  V30 BEGIN ATOM
M  V30 1 C 0.739595 1.307856 4.630158 0
M  V30 2 O 1.555051 1.414907 3.459856 0
M  V30 3 C 2.914817 1.303919 3.566223 0
M  V30 4 O 3.027063 1.118911 4.800928 0
M  V30 5 C 4.099177 1.338743 2.747407 0
M  V30 6 C 5.340102 1.142473 3.299106 0
M  V30 7 C 6.396543 1.171313 2.431837 0
M  V30 8 C 6.296623 1.379577 1.061569 0
M  V30 9 C 5.019846 1.574312 0.540196 0
M  V30 10 C 3.927681 1.549753 1.409926 0
M  V30 11 N 2.734593 1.774506 0.688786 0
M  V30 12 C 1.888574 2.804884 0.207671 0
M  V30 13 O 2.200852 3.997022 0.441755 0
M  V30 14 C 0.661861 2.557412 -0.557652 0
M  V30 15 N 0.306993 1.213065 -0.774071 0
M  V30 16 C -0.160224 0.453660 0.329561 0
M  V30 17 C -1.574676 -0.090393 0.032989 0
M  V30 18 C -1.316813 -1.077629 -1.108082 0
M  V30 19 N -2.418284 -1.975333 -1.266919 0
M  V30 20 C -2.524397 -3.285372 -0.742979 0
M  V30 21 O -1.513212 -3.640790 -0.074667 0
M  V30 22 C -3.685890 -4.127657 -0.958141 0
M  V30 23 C -4.706033 -3.671477 -1.755934 0
M  V30 24 C -5.865611 -4.349782 -2.048989 0
M  V30 25 C -6.051533 -5.602067 -1.509370 0
M  V30 26 C -5.060060 -6.109280 -0.701298 0
M  V30 27 C -3.905483 -5.373797 -0.439904 0
M  V30 28 C -2.852064 -5.944040 0.444378 0
M  V30 29 C -0.954311 -0.284003 -2.314090 0
M  V30 30 C 0.090547 0.736190 -2.073094 0
M  V30 31 H -0.308073 1.572647 4.392929 0
M  V30 32 H 0.778316 0.278804 5.037929 0
M  V30 33 H 1.176921 1.951738 5.433367 0
M  V30 34 H 5.462094 0.978203 4.366088 0
M  V30 35 H 7.375421 1.016249 2.858841 0
M  V30 36 H 7.209047 1.381499 0.472001 0
M  V30 37 H 5.035386 1.724586 -0.529277 0
M  V30 38 H 2.467608 0.790972 0.478660 0
M  V30 39 H -0.157748 3.079168 0.037582 0
M  V30 40 H 0.747675 3.083938 -1.535156 0
M  V30 41 H 0.467379 -0.435186 0.548767 0
M  V30 42 H -0.211885 1.062783 1.226766 0
M  V30 43 H -1.893908 -0.688621 0.886444 0
M  V30 44 H -2.182170 0.757666 -0.266923 0
M  V30 45 H -0.444847 -1.667331 -0.761603 0
M  V30 46 H -3.174490 -1.523016 -1.861447 0
M  V30 47 H -4.720150 -2.704760 -2.267636 0
M  V30 48 H -6.671848 -3.983886 -2.680135 0
M  V30 49 H -6.932774 -6.229918 -1.667184 0
M  V30 50 H -5.176254 -7.106905 -0.250405 0
M  V30 51 H -3.158016 -6.999766 0.712073 0
M  V30 52 H -1.859083 -5.930910 -0.050711 0
M  V30 53 H -2.858697 -5.383514 1.411784 0
M  V30 54 H -0.553996 -1.016428 -3.082031 0
M  V30 55 H -1.868488 0.167683 -2.786236 0
M  V30 56 H -0.180907 1.634496 -2.715291 0
M  V30 57 H 1.084172 0.369180 -2.485261 0
M  V30 END ATOM
M  V30 BEGIN BOND
M  V30 1 1 1 2
M  V30 2 1 2 3
M  V30 3 2 3 4
M  V30 4 1 3 5
M  V30 5 2 5 6
M  V30 6 1 6 7
M  V30 7 2 7 8
M  V30 8 1 8 9
M  V30 9 2 9 10
M  V30 10 1 10 11
M  V30 11 1 11 12
M  V30 12 2 12 13
M  V30 13 1 12 14
M  V30 14 1 14 15
M  V30 15 1 15 16
M  V30 16 1 16 17
M  V30 17 1 17 18
M  V30 18 1 18 19
M  V30 19 1 19 20
M  V30 20 2 20 21
M  V30 21 1 20 22
M  V30 22 2 22 23
M  V30 23 1 23 24
M  V30 24 2 24 25
M  V30 25 1 25 26
M  V30 26 2 26 27
M  V30 27 1 27 28
M  V30 28 1 18 29
M  V30 29 1 29 30
M  V30 30 1 10 5
M  V30 31 1 30 15
M  V30 32 1 27 22
M  V30 33 1 1 31
M  V30 34 1 1 32
M  V30 35 1 1 33
M  V30 36 1 6 34
M  V30 37 1 7 35
M  V30 38 1 8 36
M  V30 39 1 9 37
M  V30 40 1 11 38
M  V30 41 1 14 39
M  V30 42 1 14 40
M  V30 43 1 16 41
M  V30 44 1 16 42
M  V30 45 1 17 43
M  V30 46 1 17 44
M  V30 47 1 18 45
M  V30 48 1 19 46
M  V30 49 1 23 47
M  V30 50 1 24 48
M  V30 51 1 25 49
M  V30 52 1 26 50
M  V30 53 1 28 51
M  V30 54 1 28 52
M  V30 55 1 28 53
M  V30 56 1 29 54
M  V30 57 1 29 55
M  V30 58 1 30 56
M  V30 59 1 30 57
M  V30 END BOND
M  V30 END CTAB
M  END
>  <Dataset>  (574) 
ChEMBL_Kinases

>  <Ligand_Instance>  (574) 
nan

>  <PDB_ID>  (574) 
nan

>  <Standardized_SMILES>  (574) 
COC(=O)c1ccccc1NC(=O)CN1CCC(NC(=O)c2ccccc2C)CC1

>  <Name>  (574) 
nan

>  <Pocket>  (574) 
nan

>  <ATP_Site>  (574) 
nan

>  <Peripheral>  (574) 
nan

>  <Num_H_Atoms_ProtBoundConf>  (574) 
nan

>  <Num_Resolved_Atoms>  (574) 
nan

>  <Num_Not_Resolved_Atoms>  (574) 
nan

$$$$
CHEMBL1429267
     RDKit          3D

  0  0  0  0  0  0  0  0  0  0999 V3000
M  V30 BEGIN CTAB
M  V30 COUNTS 63 67 0 0 0
M  V30 BEGIN ATOM
M  V30 1 C -1.353947 1.072088 6.362800 0
M  V30 2 O -0.652191 -0.060538 5.903941 0
M  V30 3 C 0.099177 -0.001569 4.741166 0
M  V30 4 C 0.750885 -1.160119 4.372578 0
M  V30 5 C 1.518990 -1.183179 3.228025 0
M  V30 6 C 1.711817 -0.115762 2.372422 0
M  V30 7 C 2.511915 -0.048521 1.164279 0
M  V30 8 N 1.905411 -0.444074 -0.071183 0
M  V30 9 C 1.132085 0.438921 -0.912140 0
M  V30 10 C -0.292492 0.558976 -0.590796 0
M  V30 11 C -0.682426 1.777618 -0.002257 0
M  V30 12 C -1.956102 2.142808 0.375662 0
M  V30 13 C -2.245903 3.362742 0.948159 0
M  V30 14 C -3.566294 3.610459 1.284901 0
M  V30 15 C -4.565220 2.690311 1.065431 0
M  V30 16 C -4.297890 1.448817 0.487379 0
M  V30 17 C -2.975121 1.241070 0.167575 0
M  V30 18 N -2.652533 0.064159 -0.391738 0
M  V30 19 C -1.396400 -0.237116 -0.739041 0
M  V30 20 O -1.161646 -1.462498 -1.303697 0
M  V30 21 O -5.751768 3.253541 1.513710 0
M  V30 22 C -5.543362 4.546856 2.048536 0
M  V30 23 O -4.152917 4.725595 1.864937 0
M  V30 24 C 2.087365 -1.808933 -0.429027 0
M  V30 25 O 2.724707 -2.487203 0.451015 0
M  V30 26 N 1.733898 -2.601479 -1.534071 0
M  V30 27 C 2.026396 -4.007024 -1.682953 0
M  V30 28 C 0.801064 -4.866537 -1.681780 0
M  V30 29 C 0.031876 -4.670623 -2.961804 0
M  V30 30 C 0.837650 -5.036079 -4.177971 0
M  V30 31 C 2.299934 -5.161530 -3.938778 0
M  V30 32 C 2.873001 -4.346427 -2.840501 0
M  V30 33 C 1.033753 1.011462 2.797887 0
M  V30 34 C 0.251166 1.101899 3.928593 0
M  V30 35 H -2.303208 1.189118 5.775858 0
M  V30 36 H -0.728584 1.958838 6.222224 0
M  V30 37 H -1.581350 0.955526 7.443004 0
M  V30 38 H 0.661656 -2.055280 4.980626 0
M  V30 39 H 2.005312 -2.118186 3.000331 0
M  V30 40 H 2.924267 0.993235 1.091539 0
M  V30 41 H 3.445019 -0.672569 1.295602 0
M  V30 42 H 1.595591 1.441310 -0.960611 0
M  V30 43 H 1.182692 0.036873 -1.960747 0
M  V30 44 H 0.063421 2.563945 0.199260 0
M  V30 45 H -1.448016 4.071101 1.112194 0
M  V30 46 H -5.090791 0.747265 0.325339 0
M  V30 47 H -1.619846 -1.809143 -2.136148 0
M  V30 48 H -6.134122 5.261396 1.412549 0
M  V30 49 H -5.845936 4.606825 3.115822 0
M  V30 50 H 1.234236 -2.039143 -2.271203 0
M  V30 51 H 2.566913 -4.315364 -0.735884 0
M  V30 52 H 1.108742 -5.918859 -1.599544 0
M  V30 53 H 0.121363 -4.619239 -0.848190 0
M  V30 54 H -0.293223 -3.609782 -2.986158 0
M  V30 55 H -0.895331 -5.273858 -2.873636 0
M  V30 56 H 0.425317 -5.989972 -4.570673 0
M  V30 57 H 0.609440 -4.276068 -4.954925 0
M  V30 58 H 2.833409 -4.922844 -4.884652 0
M  V30 59 H 2.550773 -6.232482 -3.738772 0
M  V30 60 H 3.819351 -4.808838 -2.483703 0
M  V30 61 H 3.239548 -3.362234 -3.270335 0
M  V30 62 H 1.077690 1.936946 2.259659 0
M  V30 63 H -0.264676 1.980803 4.240204 0
M  V30 END ATOM
M  V30 BEGIN BOND
M  V30 1 1 1 2
M  V30 2 1 2 3
M  V30 3 2 3 4
M  V30 4 1 4 5
M  V30 5 2 5 6
M  V30 6 1 6 7
M  V30 7 1 7 8
M  V30 8 1 8 9
M  V30 9 1 9 10
M  V30 10 2 10 11
M  V30 11 1 11 12
M  V30 12 2 12 13
M  V30 13 1 13 14
M  V30 14 2 14 15
M  V30 15 1 15 16
M  V30 16 2 16 17
M  V30 17 1 17 18
M  V30 18 2 18 19
M  V30 19 1 19 20
M  V30 20 1 15 21
M  V30 21 1 21 22
M  V30 22 1 22 23
M  V30 23 1 8 24
M  V30 24 2 24 25
M  V30 25 1 24 26
M  V30 26 1 26 27
M  V30 27 1 27 28
M  V30 28 1 28 29
M  V30 29 1 29 30
M  V30 30 1 30 31
M  V30 31 1 31 32
M  V30 32 1 6 33
M  V30 33 2 33 34
M  V30 34 1 34 3
M  V30 35 1 19 10
M  V30 36 1 32 27
M  V30 37 1 17 12
M  V30 38 1 23 14
M  V30 39 1 1 35
M  V30 40 1 1 36
M  V30 41 1 1 37
M  V30 42 1 4 38
M  V30 43 1 5 39
M  V30 44 1 7 40
M  V30 45 1 7 41
M  V30 46 1 9 42
M  V30 47 1 9 43
M  V30 48 1 11 44
M  V30 49 1 13 45
M  V30 50 1 16 46
M  V30 51 1 20 47
M  V30 52 1 22 48
M  V30 53 1 22 49
M  V30 54 1 26 50
M  V30 55 1 27 51
M  V30 56 1 28 52
M  V30 57 1 28 53
M  V30 58 1 29 54
M  V30 59 1 29 55
M  V30 60 1 30 56
M  V30 61 1 30 57
M  V30 62 1 31 58
M  V30 63 1 31 59
M  V30 64 1 32 60
M  V30 65 1 32 61
M  V30 66 1 33 62
M  V30 67 1 34 63
M  V30 END BOND
M  V30 END CTAB
M  END
>  <Dataset>  (575) 
ChEMBL_Kinases

>  <Ligand_Instance>  (575) 
nan

>  <PDB_ID>  (575) 
nan

>  <Standardized_SMILES>  (575) 
COc1ccc(CN(Cc2cc3cc4c(cc3nc2O)OCO4)C(=O)NC2CCCCC2)cc1

>  <Name>  (575) 
nan

>  <Pocket>  (575) 
nan

>  <ATP_Site>  (575) 
nan

>  <Peripheral>  (575) 
nan

>  <Num_H_Atoms_ProtBoundConf>  (575) 
nan

>  <Num_Resolved_Atoms>  (575) 
nan

>  <Num_Not_Resolved_Atoms>  (575) 
nan

$$$$
CHEMBL1429262
     RDKit          3D

  0  0  0  0  0  0  0  0  0  0999 V3000
M  V30 BEGIN CTAB
M  V30 COUNTS 41 43 0 0 0
M  V30 BEGIN ATOM
M  V30 1 C 2.357239 -0.634029 2.978925 0
M  V30 2 C 1.326228 -0.180642 1.987137 0
M  V30 3 C 1.620432 0.812412 1.160995 0
M  V30 4 C 0.724022 1.351087 0.159810 0
M  V30 5 C 1.020989 2.330188 -0.653655 0
M  V30 6 C 2.295261 3.024296 -0.674695 0
M  V30 7 O 3.255999 2.761019 0.087448 0
M  V30 8 N 2.643082 4.084913 -1.542088 0
M  V30 9 C 1.690853 4.531812 -2.481421 0
M  V30 10 S 2.060205 5.765274 -3.508569 0
M  V30 11 N 0.407778 3.926145 -2.552454 0
M  V30 12 C 0.118567 2.865619 -1.654537 0
M  V30 13 O -1.048294 2.450804 -1.853624 0
M  V30 14 C -0.549379 0.661990 0.175816 0
M  V30 15 C -0.886186 -0.330957 0.980699 0
M  V30 16 C -2.239789 -0.932333 0.871332 0
M  V30 17 F -2.885611 -1.065106 2.077111 0
M  V30 18 F -2.239975 -2.037760 0.065034 0
M  V30 19 F -3.086355 -0.022312 0.168463 0
M  V30 20 N 0.023388 -0.824354 1.941255 0
M  V30 21 C -0.175923 -1.879705 2.872546 0
M  V30 22 C -0.396946 -3.239362 2.376908 0
M  V30 23 C -1.524527 -4.023681 2.271798 0
M  V30 24 C -1.639916 -5.289260 1.770078 0
M  V30 25 C -0.495115 -5.891583 1.298149 0
M  V30 26 C 0.712741 -5.186360 1.355456 0
M  V30 27 C 0.744278 -3.890647 1.885607 0
M  V30 28 H 1.900212 -0.376945 3.977079 0
M  V30 29 H 3.288571 -0.050732 2.838908 0
M  V30 30 H 2.598600 -1.690668 2.927708 0
M  V30 31 H 2.615685 1.193727 1.306327 0
M  V30 32 H 3.560872 4.584257 -1.556661 0
M  V30 33 H -0.238430 4.310996 -3.270595 0
M  V30 34 H -1.345240 0.903601 -0.481814 0
M  V30 35 H -1.025316 -1.620638 3.595415 0
M  V30 36 H 0.694202 -1.943407 3.560085 0
M  V30 37 H -2.418898 -3.562236 2.651555 0
M  V30 38 H -2.592766 -5.770610 1.755873 0
M  V30 39 H -0.596556 -6.888464 0.905024 0
M  V30 40 H 1.521058 -5.762159 0.960164 0
M  V30 41 H 1.757795 -3.560240 1.822491 0
M  V30 END ATOM
M  V30 BEGIN BOND
M  V30 1 1 1 2
M  V30 2 2 2 3
M  V30 3 1 3 4
M  V30 4 2 4 5 CFG=2
M  V30 5 1 5 6
M  V30 6 2 6 7
M  V30 7 1 6 8
M  V30 8 1 8 9
M  V30 9 2 9 10
M  V30 10 1 9 11
M  V30 11 1 11 12
M  V30 12 2 12 13
M  V30 13 1 4 14
M  V30 14 2 14 15
M  V30 15 1 15 16
M  V30 16 1 16 17
M  V30 17 1 16 18
M  V30 18 1 16 19
M  V30 19 1 15 20
M  V30 20 1 20 21
M  V30 21 1 21 22
M  V30 22 2 22 23
M  V30 23 1 23 24
M  V30 24 2 24 25
M  V30 25 1 25 26
M  V30 26 2 26 27
M  V30 27 1 20 2
M  V30 28 1 27 22
M  V30 29 1 12 5
M  V30 30 1 1 28
M  V30 31 1 1 29
M  V30 32 1 1 30
M  V30 33 1 3 31
M  V30 34 1 8 32
M  V30 35 1 11 33
M  V30 36 1 14 34
M  V30 37 1 21 35
M  V30 38 1 21 36
M  V30 39 1 23 37
M  V30 40 1 24 38
M  V30 41 1 25 39
M  V30 42 1 26 40
M  V30 43 1 27 41
M  V30 END BOND
M  V30 END CTAB
M  END
>  <Dataset>  (576) 
ChEMBL_Kinases

>  <Ligand_Instance>  (576) 
nan

>  <PDB_ID>  (576) 
nan

>  <Standardized_SMILES>  (576) 
CC1=CC(=C2C(=O)NC(=S)NC2=O)C=C(C(F)(F)F)N1Cc1ccccc1

>  <Name>  (576) 
nan

>  <Pocket>  (576) 
nan

>  <ATP_Site>  (576) 
nan

>  <Peripheral>  (576) 
nan

>  <Num_H_Atoms_ProtBoundConf>  (576) 
nan

>  <Num_Resolved_Atoms>  (576) 
nan

>  <Num_Not_Resolved_Atoms>  (576) 
nan

$$$$
CHEMBL1429119
     RDKit          3D

  0  0  0  0  0  0  0  0  0  0999 V3000
M  V30 BEGIN CTAB
M  V30 COUNTS 42 44 0 0 0
M  V30 BEGIN ATOM
M  V30 1 C 3.404694 -7.291406 1.159434 0
M  V30 2 C 2.908076 -5.928857 0.663058 0
M  V30 3 C 1.812306 -5.407359 1.581113 0
M  V30 4 C 1.357010 -4.072396 1.053544 0
M  V30 5 C 2.504441 -3.062989 1.017925 0
M  V30 6 C 1.874599 -1.805930 0.474650 0
M  V30 7 O 0.644707 -2.056936 0.254581 0
M  V30 8 N 2.497775 -0.566400 0.240492 0
M  V30 9 C 1.483580 0.319688 -0.280657 0
M  V30 10 C 1.377759 0.295879 -1.654794 0
M  V30 11 C 0.458229 1.083759 -2.303400 0
M  V30 12 C -0.346482 1.894077 -1.499572 0
M  V30 13 C -0.212559 1.892023 -0.125879 0
M  V30 14 C -1.097163 2.771905 0.633647 0
M  V30 15 N -1.156999 2.944796 1.972556 0
M  V30 16 C -2.124112 3.858962 2.260256 0
M  V30 17 N -2.616819 4.411773 3.395720 0
M  V30 18 C -3.603039 5.317392 3.386924 0
M  V30 19 C -4.155133 5.718481 2.179522 0
M  V30 20 C -3.668674 5.167679 1.001649 0
M  V30 21 C -2.650173 4.233428 1.022224 0
M  V30 22 O -2.002840 3.557100 0.097915 0
M  V30 23 C 0.712931 1.098464 0.520433 0
M  V30 24 H 3.504274 -7.268139 2.246235 0
M  V30 25 H 4.428025 -7.415074 0.703741 0
M  V30 26 H 2.783866 -8.111878 0.759184 0
M  V30 27 H 2.571793 -6.012564 -0.372247 0
M  V30 28 H 3.780278 -5.253090 0.730348 0
M  V30 29 H 2.158698 -5.349282 2.616150 0
M  V30 30 H 0.943234 -6.095812 1.567937 0
M  V30 31 H 0.991394 -4.177984 0.011651 0
M  V30 32 H 0.512253 -3.677895 1.650073 0
M  V30 33 H 2.936969 -2.899892 2.018574 0
M  V30 34 H 3.253628 -3.346857 0.251016 0
M  V30 35 H 3.513069 -0.570098 0.487712 0
M  V30 36 H 1.998763 -0.331925 -2.303268 0
M  V30 37 H 0.325510 1.111923 -3.368194 0
M  V30 38 H -1.077596 2.519919 -2.022043 0
M  V30 39 H -3.994113 5.756836 4.295582 0
M  V30 40 H -4.953001 6.445821 2.111878 0
M  V30 41 H -4.041681 5.423309 0.011538 0
M  V30 42 H 0.827411 1.087002 1.584506 0
M  V30 END ATOM
M  V30 BEGIN BOND
M  V30 1 1 1 2
M  V30 2 1 2 3
M  V30 3 1 3 4
M  V30 4 1 4 5
M  V30 5 1 5 6
M  V30 6 2 6 7
M  V30 7 1 6 8
M  V30 8 1 8 9
M  V30 9 2 9 10
M  V30 10 1 10 11
M  V30 11 2 11 12
M  V30 12 1 12 13
M  V30 13 1 13 14
M  V30 14 2 14 15
M  V30 15 1 15 16
M  V30 16 2 16 17
M  V30 17 1 17 18
M  V30 18 2 18 19
M  V30 19 1 19 20
M  V30 20 2 20 21
M  V30 21 1 21 22
M  V30 22 2 13 23
M  V30 23 1 23 9
M  V30 24 1 22 14
M  V30 25 1 21 16
M  V30 26 1 1 24
M  V30 27 1 1 25
M  V30 28 1 1 26
M  V30 29 1 2 27
M  V30 30 1 2 28
M  V30 31 1 3 29
M  V30 32 1 3 30
M  V30 33 1 4 31
M  V30 34 1 4 32
M  V30 35 1 5 33
M  V30 36 1 5 34
M  V30 37 1 8 35
M  V30 38 1 10 36
M  V30 39 1 11 37
M  V30 40 1 12 38
M  V30 41 1 18 39
M  V30 42 1 19 40
M  V30 43 1 20 41
M  V30 44 1 23 42
M  V30 END BOND
M  V30 END CTAB
M  END
>  <Dataset>  (577) 
ChEMBL_Kinases

>  <Ligand_Instance>  (577) 
nan

>  <PDB_ID>  (577) 
nan

>  <Standardized_SMILES>  (577) 
CCCCCC(=O)Nc1cccc(-c2nc3ncccc3o2)c1

>  <Name>  (577) 
nan

>  <Pocket>  (577) 
nan

>  <ATP_Site>  (577) 
nan

>  <Peripheral>  (577) 
nan

>  <Num_H_Atoms_ProtBoundConf>  (577) 
nan

>  <Num_Resolved_Atoms>  (577) 
nan

>  <Num_Not_Resolved_Atoms>  (577) 
nan

$$$$
CHEMBL1428935
     RDKit          3D

  0  0  0  0  0  0  0  0  0  0999 V3000
M  V30 BEGIN CTAB
M  V30 COUNTS 39 41 0 0 0
M  V30 BEGIN ATOM
M  V30 1 N -4.613622 -0.682005 1.281406 0
M  V30 2 C -3.529011 -0.896613 0.932039 0
M  V30 3 C -2.165041 -1.155216 0.515149 0
M  V30 4 C -1.440405 -2.045045 1.350224 0
M  V30 5 N -0.843443 -2.771355 2.017491 0
M  V30 6 C -1.779460 -0.537347 -0.581314 0
M  V30 7 C -2.742791 0.334270 -1.262607 0
M  V30 8 C -2.351298 0.960192 -2.380186 0
M  V30 9 C -1.031455 0.849986 -2.986972 0
M  V30 10 C -0.149059 0.071323 -2.389518 0
M  V30 11 N -0.497061 -0.635265 -1.183409 0
M  V30 12 C 0.488787 -1.472707 -0.564264 0
M  V30 13 C 0.333886 -2.688685 -1.057555 0
M  V30 14 C -0.685514 -3.037261 -2.054002 0
M  V30 15 C -1.385143 -4.255803 -2.003607 0
M  V30 16 C -2.258056 -4.252439 -3.082994 0
M  V30 17 C -2.052017 -3.051641 -3.729590 0
M  V30 18 O -1.126053 -2.393559 -3.081129 0
M  V30 19 C 1.530897 -1.205752 0.415572 0
M  V30 20 O 2.231195 -2.219509 0.709164 0
M  V30 21 C 1.815531 0.060993 1.050005 0
M  V30 22 C 1.162192 1.244418 0.856702 0
M  V30 23 C 1.467024 2.428366 1.485490 0
M  V30 24 C 2.521148 2.458162 2.397873 0
M  V30 25 Cl 2.895169 3.970530 3.191024 0
M  V30 26 C 3.195437 1.283011 2.611537 0
M  V30 27 C 2.865526 0.117077 1.966973 0
M  V30 28 H -3.770308 0.508259 -0.912934 0
M  V30 29 H -3.072125 1.609112 -2.886917 0
M  V30 30 H -0.806040 1.392571 -3.890842 0
M  V30 31 H 0.855815 -0.047897 -2.802243 0
M  V30 32 H 0.984191 -3.521964 -0.735822 0
M  V30 33 H -1.240206 -5.029221 -1.244154 0
M  V30 34 H -2.903067 -5.116860 -3.228304 0
M  V30 35 H -2.666640 -2.898211 -4.603304 0
M  V30 36 H 0.352680 1.266270 0.170954 0
M  V30 37 H 0.891936 3.327125 1.271445 0
M  V30 38 H 4.027621 1.283598 3.328255 0
M  V30 39 H 3.436669 -0.760572 2.186166 0
M  V30 END ATOM
M  V30 BEGIN BOND
M  V30 1 3 1 2
M  V30 2 1 2 3
M  V30 3 1 3 4
M  V30 4 3 4 5
M  V30 5 2 3 6 CFG=2
M  V30 6 1 6 7
M  V30 7 2 7 8
M  V30 8 1 8 9
M  V30 9 2 9 10
M  V30 10 1 10 11
M  V30 11 1 11 12
M  V30 12 2 12 13
M  V30 13 1 13 14
M  V30 14 2 14 15
M  V30 15 1 15 16
M  V30 16 2 16 17
M  V30 17 1 17 18
M  V30 18 1 12 19
M  V30 19 2 19 20
M  V30 20 1 19 21
M  V30 21 2 21 22
M  V30 22 1 22 23
M  V30 23 2 23 24
M  V30 24 1 24 25
M  V30 25 1 24 26
M  V30 26 2 26 27
M  V30 27 1 11 6
M  V30 28 1 18 14
M  V30 29 1 27 21
M  V30 30 1 7 28
M  V30 31 1 8 29
M  V30 32 1 9 30
M  V30 33 1 10 31
M  V30 34 1 13 32
M  V30 35 1 15 33
M  V30 36 1 16 34
M  V30 37 1 17 35
M  V30 38 1 22 36
M  V30 39 1 23 37
M  V30 40 1 26 38
M  V30 41 1 27 39
M  V30 END BOND
M  V30 END CTAB
M  END
>  <Dataset>  (578) 
ChEMBL_Kinases

>  <Ligand_Instance>  (578) 
nan

>  <PDB_ID>  (578) 
nan

>  <Standardized_SMILES>  (578) 
N#CC(C#N)=C1C=CC=CN1/C(=C\c1ccco1)C(=O)c1ccc(Cl)cc1

>  <Name>  (578) 
nan

>  <Pocket>  (578) 
nan

>  <ATP_Site>  (578) 
nan

>  <Peripheral>  (578) 
nan

>  <Num_H_Atoms_ProtBoundConf>  (578) 
nan

>  <Num_Resolved_Atoms>  (578) 
nan

>  <Num_Not_Resolved_Atoms>  (578) 
nan

$$$$
CHEMBL1428915
     RDKit          3D

  0  0  0  0  0  0  0  0  0  0999 V3000
M  V30 BEGIN CTAB
M  V30 COUNTS 45 47 0 0 0
M  V30 BEGIN ATOM
M  V30 1 C 0.845729 -6.456555 0.766903 0
M  V30 2 O 0.508236 -5.479441 -0.169216 0
M  V30 3 C -0.630458 -4.825417 0.307576 0
M  V30 4 C -1.100392 -3.737181 -0.623494 0
M  V30 5 N -0.116918 -2.709434 -0.837070 0
M  V30 6 C 0.909360 -2.675072 -1.872452 0
M  V30 7 C 1.637704 -1.410952 -1.605063 0
M  V30 8 C 2.706767 -0.943368 -2.317998 0
M  V30 9 C 3.263883 0.267329 -1.927464 0
M  V30 10 C 2.768675 0.988978 -0.857760 0
M  V30 11 C 1.685547 0.444956 -0.189042 0
M  V30 12 C 1.142713 1.201613 0.961330 0
M  V30 13 O 0.707390 0.642859 1.998398 0
M  V30 14 N 1.036556 2.641959 1.065073 0
M  V30 15 C 0.447537 2.798908 2.376856 0
M  V30 16 C 1.254432 2.904240 3.501179 0
M  V30 17 C 0.645897 3.049905 4.727090 0
M  V30 18 C -0.730034 3.079202 4.744376 0
M  V30 19 C -1.549766 2.977808 3.640951 0
M  V30 20 C -0.946997 2.832612 2.409232 0
M  V30 21 O -1.668504 2.719848 1.220121 0
M  V30 22 C -3.080705 2.755048 1.272391 0
M  V30 23 C 1.084219 -0.751054 -0.522188 0
M  V30 24 C -0.018380 -1.535781 -0.015277 0
M  V30 25 O -0.761458 -1.253775 0.960953 0
M  V30 26 H 0.042559 -7.203701 0.919859 0
M  V30 27 H 1.788004 -6.982000 0.509308 0
M  V30 28 H 1.012292 -5.958463 1.750942 0
M  V30 29 H -0.421128 -4.425788 1.329333 0
M  V30 30 H -1.442490 -5.591431 0.327718 0
M  V30 31 H -1.341779 -4.199524 -1.584775 0
M  V30 32 H -2.014024 -3.298212 -0.155156 0
M  V30 33 H 0.418975 -2.608428 -2.872631 0
M  V30 34 H 1.523738 -3.569036 -1.766710 0
M  V30 35 H 3.141697 -1.447183 -3.166522 0
M  V30 36 H 4.105745 0.712040 -2.428162 0
M  V30 37 H 3.205749 1.930597 -0.563888 0
M  V30 38 H 1.393829 3.169240 0.211521 0
M  V30 39 H 2.341032 2.872791 3.381720 0
M  V30 40 H 1.234731 3.135472 5.636123 0
M  V30 41 H -1.191512 3.192927 5.733843 0
M  V30 42 H -2.625911 3.011421 3.724432 0
M  V30 43 H -3.441999 3.565444 1.957773 0
M  V30 44 H -3.409442 3.022527 0.230937 0
M  V30 45 H -3.532266 1.771066 1.529075 0
M  V30 END ATOM
M  V30 BEGIN BOND
M  V30 1 1 1 2
M  V30 2 1 2 3
M  V30 3 1 3 4
M  V30 4 1 4 5
M  V30 5 1 5 6
M  V30 6 1 6 7
M  V30 7 2 7 8
M  V30 8 1 8 9
M  V30 9 2 9 10
M  V30 10 1 10 11
M  V30 11 1 11 12
M  V30 12 2 12 13
M  V30 13 1 12 14
M  V30 14 1 14 15
M  V30 15 2 15 16
M  V30 16 1 16 17
M  V30 17 2 17 18
M  V30 18 1 18 19
M  V30 19 2 19 20
M  V30 20 1 20 21
M  V30 21 1 21 22
M  V30 22 2 11 23
M  V30 23 1 23 24
M  V30 24 2 24 25
M  V30 25 1 24 5
M  V30 26 1 23 7
M  V30 27 1 20 15
M  V30 28 1 1 26
M  V30 29 1 1 27
M  V30 30 1 1 28
M  V30 31 1 3 29
M  V30 32 1 3 30
M  V30 33 1 4 31
M  V30 34 1 4 32
M  V30 35 1 6 33
M  V30 36 1 6 34
M  V30 37 1 8 35
M  V30 38 1 9 36
M  V30 39 1 10 37
M  V30 40 1 14 38
M  V30 41 1 16 39
M  V30 42 1 17 40
M  V30 43 1 18 41
M  V30 44 1 19 42
M  V30 45 1 22 43
M  V30 46 1 22 44
M  V30 47 1 22 45
M  V30 END BOND
M  V30 END CTAB
M  END
>  <Dataset>  (579) 
ChEMBL_Kinases

>  <Ligand_Instance>  (579) 
nan

>  <PDB_ID>  (579) 
nan

>  <Standardized_SMILES>  (579) 
COCCN1Cc2cccc(C(=O)Nc3ccccc3OC)c2C1=O

>  <Name>  (579) 
nan

>  <Pocket>  (579) 
nan

>  <ATP_Site>  (579) 
nan

>  <Peripheral>  (579) 
nan

>  <Num_H_Atoms_ProtBoundConf>  (579) 
nan

>  <Num_Resolved_Atoms>  (579) 
nan

>  <Num_Not_Resolved_Atoms>  (579) 
nan

$$$$
CHEMBL1428889
     RDKit          3D

  0  0  0  0  0  0  0  0  0  0999 V3000
M  V30 BEGIN CTAB
M  V30 COUNTS 49 53 0 0 0
M  V30 BEGIN ATOM
M  V30 1 C -1.840708 2.891665 2.888892 0
M  V30 2 C -0.450543 3.331150 2.554736 0
M  V30 3 C 0.400322 2.219343 2.008304 0
M  V30 4 N 1.673337 2.493337 1.670029 0
M  V30 5 C 2.371720 1.441606 1.186573 0
M  V30 6 O 3.674204 1.493475 0.784137 0
M  V30 7 C 4.486721 2.625048 0.804767 0
M  V30 8 C 3.807811 3.635918 -0.083024 0
M  V30 9 C 4.036183 3.763581 -1.445550 0
M  V30 10 C 3.218597 4.791638 -1.842394 0
M  V30 11 C 2.529013 5.249203 -0.722523 0
M  V30 12 O 2.924452 4.516066 0.307137 0
M  V30 13 C 1.755109 0.209437 1.077882 0
M  V30 14 S 2.363111 -1.358722 0.494490 0
M  V30 15 C 0.863826 -2.270738 0.746562 0
M  V30 16 N 0.638512 -3.544592 0.501807 0
M  V30 17 C -0.561788 -4.090772 0.748943 0
M  V30 18 C -1.476886 -3.194965 1.263540 0
M  V30 19 C -1.257259 -1.861663 1.524795 0
M  V30 20 C -0.011120 -1.330545 1.259291 0
M  V30 21 C 0.458405 -0.058413 1.425255 0
M  V30 22 N -0.189249 1.022145 1.899706 0
M  V30 23 C -2.842014 -3.783761 1.554185 0
M  V30 24 O -3.213789 -4.349571 0.336080 0
M  V30 25 C -2.449568 -5.408737 -0.071938 0
M  V30 26 C -2.163583 -5.232149 -1.570698 0
M  V30 27 C -3.222002 -6.677448 0.155921 0
M  V30 28 C -1.067779 -5.471554 0.565898 0
M  V30 29 H -1.869852 2.529002 3.950500 0
M  V30 30 H -2.223229 2.118663 2.203293 0
M  V30 31 H -2.500404 3.786741 2.871091 0
M  V30 32 H 0.020828 3.795759 3.428315 0
M  V30 33 H -0.533816 4.097280 1.746633 0
M  V30 34 H 4.560875 3.006343 1.836857 0
M  V30 35 H 5.514778 2.428570 0.442152 0
M  V30 36 H 4.698348 3.204836 -2.095822 0
M  V30 37 H 3.164673 5.143169 -2.875925 0
M  V30 38 H 1.827983 6.054589 -0.792355 0
M  V30 39 H -2.089460 -1.268879 1.937543 0
M  V30 40 H -2.753076 -4.559521 2.337397 0
M  V30 41 H -3.539741 -2.973990 1.778378 0
M  V30 42 H -1.795333 -6.167007 -2.031082 0
M  V30 43 H -3.081188 -4.891045 -2.089806 0
M  V30 44 H -1.349064 -4.485569 -1.663209 0
M  V30 45 H -3.072735 -7.424863 -0.648785 0
M  V30 46 H -4.300930 -6.435290 0.176639 0
M  V30 47 H -2.947379 -7.070646 1.155164 0
M  V30 48 H -1.178439 -5.937630 1.588143 0
M  V30 49 H -0.414974 -6.107942 -0.032322 0
M  V30 END ATOM
M  V30 BEGIN BOND
M  V30 1 1 1 2
M  V30 2 1 2 3
M  V30 3 2 3 4
M  V30 4 1 4 5
M  V30 5 1 5 6
M  V30 6 1 6 7
M  V30 7 1 7 8
M  V30 8 2 8 9
M  V30 9 1 9 10
M  V30 10 2 10 11
M  V30 11 1 11 12
M  V30 12 2 5 13
M  V30 13 1 13 14
M  V30 14 1 14 15
M  V30 15 2 15 16
M  V30 16 1 16 17
M  V30 17 2 17 18
M  V30 18 1 18 19
M  V30 19 2 19 20
M  V30 20 1 20 21
M  V30 21 2 21 22
M  V30 22 1 18 23
M  V30 23 1 23 24
M  V30 24 1 24 25
M  V30 25 1 25 26
M  V30 26 1 25 27
M  V30 27 1 25 28
M  V30 28 1 22 3
M  V30 29 1 12 8
M  V30 30 1 21 13
M  V30 31 1 20 15
M  V30 32 1 28 17
M  V30 33 1 1 29
M  V30 34 1 1 30
M  V30 35 1 1 31
M  V30 36 1 2 32
M  V30 37 1 2 33
M  V30 38 1 7 34
M  V30 39 1 7 35
M  V30 40 1 9 36
M  V30 41 1 10 37
M  V30 42 1 11 38
M  V30 43 1 19 39
M  V30 44 1 23 40
M  V30 45 1 23 41
M  V30 46 1 26 42
M  V30 47 1 26 43
M  V30 48 1 26 44
M  V30 49 1 27 45
M  V30 50 1 27 46
M  V30 51 1 27 47
M  V30 52 1 28 48
M  V30 53 1 28 49
M  V30 END BOND
M  V30 END CTAB
M  END
>  <Dataset>  (580) 
ChEMBL_Kinases

>  <Ligand_Instance>  (580) 
nan

>  <PDB_ID>  (580) 
nan

>  <Standardized_SMILES>  (580) 
CCc1nc(OCc2ccco2)c2sc3nc4c(cc3c2n1)COC(C)(C)C4

>  <Name>  (580) 
nan

>  <Pocket>  (580) 
nan

>  <ATP_Site>  (580) 
nan

>  <Peripheral>  (580) 
nan

>  <Num_H_Atoms_ProtBoundConf>  (580) 
nan

>  <Num_Resolved_Atoms>  (580) 
nan

>  <Num_Not_Resolved_Atoms>  (580) 
nan

$$$$
CHEMBL1428593
     RDKit          3D

  0  0  0  0  0  0  0  0  0  0999 V3000
M  V30 BEGIN CTAB
M  V30 COUNTS 55 58 0 0 0
M  V30 BEGIN ATOM
M  V30 1 C 4.221274 -4.572313 -0.272315 0
M  V30 2 O 3.281552 -3.622457 -0.732495 0
M  V30 3 C 2.902139 -2.611143 0.136589 0
M  V30 4 C 3.387069 -2.478135 1.421124 0
M  V30 5 C 2.987317 -1.457053 2.261782 0
M  V30 6 C 2.064531 -0.515095 1.825496 0
M  V30 7 C 1.635431 0.590823 2.737760 0
M  V30 8 C 2.288873 1.871232 2.338354 0
M  V30 9 C 1.455777 2.944771 1.787353 0
M  V30 10 C 2.237035 3.670917 0.697247 0
M  V30 11 F 3.395536 4.221782 1.190983 0
M  V30 12 F 2.626315 2.805003 -0.314533 0
M  V30 13 F 1.456134 4.636759 0.096644 0
M  V30 14 N 0.185373 2.580457 1.249963 0
M  V30 15 N -0.570496 3.193931 0.347760 0
M  V30 16 C -1.680161 2.469179 0.165378 0
M  V30 17 C -1.654584 1.351446 0.966683 0
M  V30 18 C -2.606117 0.270386 1.134836 0
M  V30 19 O -2.323304 -0.638849 1.955604 0
M  V30 20 N -3.835362 0.184740 0.424613 0
M  V30 21 C -4.833985 -0.834689 0.520258 0
M  V30 22 C -4.481007 -2.100482 -0.172998 0
M  V30 23 C -3.815149 -3.143185 0.436269 0
M  V30 24 C -3.485112 -4.323324 -0.207542 0
M  V30 25 C -3.837518 -4.486484 -1.549374 0
M  V30 26 N -4.486386 -3.474683 -2.148987 0
M  V30 27 C -4.793736 -2.343206 -1.503095 0
M  V30 28 C -0.464332 1.459251 1.632790 0
M  V30 29 N 0.174368 0.638913 2.605457 0
M  V30 30 C 1.591731 -0.665788 0.538117 0
M  V30 31 C 1.985353 -1.679560 -0.304134 0
M  V30 32 O 1.484319 -1.779551 -1.568911 0
M  V30 33 C 0.561329 -0.937658 -2.174535 0
M  V30 34 H 4.689242 -5.109369 -1.147181 0
M  V30 35 H 5.066314 -4.146047 0.281775 0
M  V30 36 H 3.767061 -5.371776 0.346346 0
M  V30 37 H 4.092735 -3.177924 1.791149 0
M  V30 38 H 3.351611 -1.337396 3.258760 0
M  V30 39 H 1.906023 0.288570 3.770188 0
M  V30 40 H 2.819771 2.283990 3.248301 0
M  V30 41 H 3.128196 1.633806 1.647899 0
M  V30 42 H 1.250528 3.753170 2.550092 0
M  V30 43 H -2.510691 2.701839 -0.515479 0
M  V30 44 H -3.967464 1.005299 -0.239510 0
M  V30 45 H -5.757438 -0.474218 0.054311 0
M  V30 46 H -5.026191 -1.032820 1.612464 0
M  V30 47 H -3.525264 -3.058384 1.471540 0
M  V30 48 H -2.954741 -5.104942 0.347132 0
M  V30 49 H -3.539682 -5.437919 -1.969963 0
M  V30 50 H -5.317405 -1.587541 -2.075346 0
M  V30 51 H -0.402457 0.036252 3.264523 0
M  V30 52 H 0.885602 0.025602 0.154882 0
M  V30 53 H -0.484599 -1.274366 -2.132059 0
M  V30 54 H 0.825292 -0.905589 -3.272658 0
M  V30 55 H 0.594433 0.122891 -1.862061 0
M  V30 END ATOM
M  V30 BEGIN BOND
M  V30 1 1 1 2
M  V30 2 1 2 3
M  V30 3 2 3 4
M  V30 4 1 4 5
M  V30 5 2 5 6
M  V30 6 1 6 7
M  V30 7 1 7 8
M  V30 8 1 8 9
M  V30 9 1 9 10
M  V30 10 1 10 11
M  V30 11 1 10 12
M  V30 12 1 10 13
M  V30 13 1 9 14
M  V30 14 1 14 15
M  V30 15 2 15 16
M  V30 16 1 16 17
M  V30 17 1 17 18
M  V30 18 2 18 19
M  V30 19 1 18 20
M  V30 20 1 20 21
M  V30 21 1 21 22
M  V30 22 2 22 23
M  V30 23 1 23 24
M  V30 24 2 24 25
M  V30 25 1 25 26
M  V30 26 2 26 27
M  V30 27 2 17 28
M  V30 28 1 28 29
M  V30 29 1 6 30
M  V30 30 2 30 31
M  V30 31 1 31 32
M  V30 32 1 32 33
M  V30 33 1 31 3
M  V30 34 1 29 7
M  V30 35 1 28 14
M  V30 36 1 27 22
M  V30 37 1 1 34
M  V30 38 1 1 35
M  V30 39 1 1 36
M  V30 40 1 4 37
M  V30 41 1 5 38
M  V30 42 1 7 39
M  V30 43 1 8 40
M  V30 44 1 8 41
M  V30 45 1 9 42
M  V30 46 1 16 43
M  V30 47 1 20 44
M  V30 48 1 21 45
M  V30 49 1 21 46
M  V30 50 1 23 47
M  V30 51 1 24 48
M  V30 52 1 25 49
M  V30 53 1 27 50
M  V30 54 1 29 51
M  V30 55 1 30 52
M  V30 56 1 33 53
M  V30 57 1 33 54
M  V30 58 1 33 55
M  V30 END BOND
M  V30 END CTAB
M  END
>  <Dataset>  (581) 
ChEMBL_Kinases

>  <Ligand_Instance>  (581) 
nan

>  <PDB_ID>  (581) 
nan

>  <Standardized_SMILES>  (581) 
COc1ccc(C2CC(C(F)(F)F)n3ncc(C(=O)NCc4cccnc4)c3N2)cc1OC

>  <Name>  (581) 
nan

>  <Pocket>  (581) 
nan

>  <ATP_Site>  (581) 
nan

>  <Peripheral>  (581) 
nan

>  <Num_H_Atoms_ProtBoundConf>  (581) 
nan

>  <Num_Resolved_Atoms>  (581) 
nan

>  <Num_Not_Resolved_Atoms>  (581) 
nan

$$$$
CHEMBL1428587
     RDKit          3D

  0  0  0  0  0  0  0  0  0  0999 V3000
M  V30 BEGIN CTAB
M  V30 COUNTS 54 55 0 0 0
M  V30 BEGIN ATOM
M  V30 1 C 4.369369 -1.352149 -1.242506 0
M  V30 2 C 3.445790 -1.302839 -0.056045 0
M  V30 3 C 4.231448 -0.816010 1.143300 0
M  V30 4 C 2.249537 -0.395174 -0.310811 0 CFG=2
M  V30 5 N 1.433745 -0.417935 0.879103 0
M  V30 6 C 1.305183 0.791454 1.622572 0
M  V30 7 O 1.882619 1.850344 1.258470 0
M  V30 8 O 0.574805 1.008472 2.797097 0
M  V30 9 C 0.574917 2.271358 3.377121 0
M  V30 10 C 0.010713 3.265368 2.386596 0
M  V30 11 C 1.937828 2.770427 3.787734 0
M  V30 12 C -0.268990 2.220871 4.636959 0
M  V30 13 C 1.550943 -0.860614 -1.523319 0
M  V30 14 N 1.635244 -0.240220 -2.715790 0
M  V30 15 N 0.881875 -0.934958 -3.568307 0
M  V30 16 C 0.334618 -1.982798 -2.897359 0
M  V30 17 S -0.696385 -2.978547 -3.958928 0
M  V30 18 C -1.434209 -4.356782 -3.095419 0
M  V30 19 C -2.423461 -3.988459 -2.065284 0
M  V30 20 O -3.095756 -4.762728 -1.300767 0
M  V30 21 N -2.771403 -2.630145 -1.781148 0
M  V30 22 C -3.758807 -2.580846 -0.734163 0
M  V30 23 C -5.067941 -2.619984 -1.121369 0
M  V30 24 C -6.078982 -2.573202 -0.159222 0
M  V30 25 C -5.704637 -2.487627 1.170325 0
M  V30 26 Br -7.094786 -2.424102 2.472513 0
M  V30 27 C -4.366387 -2.449539 1.533828 0
M  V30 28 C -3.351432 -2.495281 0.587759 0
M  V30 29 O 0.768134 -1.901070 -1.652027 0
M  V30 30 H 4.729391 -2.376682 -1.453249 0
M  V30 31 H 3.813854 -1.022856 -2.138615 0
M  V30 32 H 5.220569 -0.626292 -1.122346 0
M  V30 33 H 3.075170 -2.331759 0.215573 0
M  V30 34 H 3.561942 -0.727336 2.041206 0
M  V30 35 H 4.779436 0.102332 0.919860 0
M  V30 36 H 4.959460 -1.636671 1.374911 0
M  V30 37 H 2.646560 0.641825 -0.427090 0
M  V30 38 H 0.913277 -1.218310 1.279345 0
M  V30 39 H -0.637552 3.957182 2.981644 0
M  V30 40 H -0.588882 2.717617 1.654077 0
M  V30 41 H 0.795942 3.834055 1.887901 0
M  V30 42 H 2.484110 3.298251 2.988864 0
M  V30 43 H 1.734593 3.570474 4.556417 0
M  V30 44 H 2.527044 1.999089 4.319864 0
M  V30 45 H -0.978116 1.396520 4.542215 0
M  V30 46 H -0.779009 3.205685 4.752895 0
M  V30 47 H 0.404974 2.042245 5.509143 0
M  V30 48 H -1.949339 -4.987910 -3.853560 0
M  V30 49 H -0.620730 -5.005560 -2.691836 0
M  V30 50 H -2.315470 -1.848658 -2.314764 0
M  V30 51 H -5.388454 -2.685354 -2.132010 0
M  V30 52 H -7.130612 -2.600622 -0.417470 0
M  V30 53 H -4.128722 -2.381194 2.604704 0
M  V30 54 H -2.312071 -2.466808 0.860110 0
M  V30 END ATOM
M  V30 BEGIN BOND
M  V30 1 1 1 2
M  V30 2 1 2 3
M  V30 3 1 2 4
M  V30 4 1 4 5
M  V30 5 1 5 6
M  V30 6 2 6 7
M  V30 7 1 6 8
M  V30 8 1 8 9
M  V30 9 1 9 10
M  V30 10 1 9 11
M  V30 11 1 9 12
M  V30 12 1 4 13
M  V30 13 2 13 14
M  V30 14 1 14 15
M  V30 15 2 15 16
M  V30 16 1 16 17
M  V30 17 1 17 18
M  V30 18 1 18 19
M  V30 19 2 19 20
M  V30 20 1 19 21
M  V30 21 1 21 22
M  V30 22 2 22 23
M  V30 23 1 23 24
M  V30 24 2 24 25
M  V30 25 1 25 26
M  V30 26 1 25 27
M  V30 27 2 27 28
M  V30 28 1 16 29
M  V30 29 1 29 13
M  V30 30 1 28 22
M  V30 31 1 1 30
M  V30 32 1 1 31
M  V30 33 1 1 32
M  V30 34 1 2 33
M  V30 35 1 3 34
M  V30 36 1 3 35
M  V30 37 1 3 36
M  V30 38 1 4 37 CFG=3
M  V30 39 1 5 38
M  V30 40 1 10 39
M  V30 41 1 10 40
M  V30 42 1 10 41
M  V30 43 1 11 42
M  V30 44 1 11 43
M  V30 45 1 11 44
M  V30 46 1 12 45
M  V30 47 1 12 46
M  V30 48 1 12 47
M  V30 49 1 18 48
M  V30 50 1 18 49
M  V30 51 1 21 50
M  V30 52 1 23 51
M  V30 53 1 24 52
M  V30 54 1 27 53
M  V30 55 1 28 54
M  V30 END BOND
M  V30 END CTAB
M  END
>  <Dataset>  (582) 
ChEMBL_Kinases

>  <Ligand_Instance>  (582) 
nan

>  <PDB_ID>  (582) 
nan

>  <Standardized_SMILES>  (582) 
CC(C)[C@H](NC(=O)OC(C)(C)C)c1nnc(SCC(=O)Nc2ccc(Br)cc2)o1

>  <Name>  (582) 
nan

>  <Pocket>  (582) 
nan

>  <ATP_Site>  (582) 
nan

>  <Peripheral>  (582) 
nan

>  <Num_H_Atoms_ProtBoundConf>  (582) 
nan

>  <Num_Resolved_Atoms>  (582) 
nan

>  <Num_Not_Resolved_Atoms>  (582) 
nan

$$$$
CHEMBL1428541
     RDKit          3D

  0  0  0  0  0  0  0  0  0  0999 V3000
M  V30 BEGIN CTAB
M  V30 COUNTS 39 41 0 0 0
M  V30 BEGIN ATOM
M  V30 1 C -0.906594 -3.484234 0.758935 0
M  V30 2 C 0.066917 -2.574645 1.400345 0
M  V30 3 N -0.479079 -1.531659 2.252433 0
M  V30 4 C 0.189584 -0.277401 2.338489 0
M  V30 5 C 0.856822 0.428081 1.392145 0
M  V30 6 C 0.933221 -0.098108 0.051982 0
M  V30 7 C 1.583368 0.469856 -0.953610 0
M  V30 8 C 1.760299 0.074671 -2.364970 0
M  V30 9 O 1.252908 -0.962705 -2.860689 0
M  V30 10 N 2.557606 0.995828 -3.070940 0
M  V30 11 C 2.907775 0.883003 -4.457134 0
M  V30 12 C 2.906925 1.989232 -2.145854 0
M  V30 13 S 3.839286 3.268540 -2.549865 0
M  V30 14 N 2.333945 1.704212 -0.847824 0
M  V30 15 C 2.508853 2.532015 0.328685 0
M  V30 16 S -0.242908 0.394910 3.968942 0
M  V30 17 C -1.743915 -0.646027 4.014131 0
M  V30 18 C -2.723463 -0.389483 4.930236 0
M  V30 19 C -3.669980 -1.394370 4.999845 0
M  V30 20 C -3.587272 -2.517512 4.206373 0
M  V30 21 C -2.521499 -2.621899 3.319179 0
M  V30 22 C -1.523162 -1.678876 3.163519 0
M  V30 23 H -1.893042 -2.975476 0.624053 0
M  V30 24 H -1.090103 -4.452334 1.255646 0
M  V30 25 H -0.547017 -3.789861 -0.272459 0
M  V30 26 H 0.499596 -3.325627 2.257598 0
M  V30 27 H 1.019420 -2.379045 0.943445 0
M  V30 28 H 1.198107 1.277351 1.900487 0
M  V30 29 H 0.454150 -0.949137 -0.355042 0
M  V30 30 H 3.294803 -0.116556 -4.710972 0
M  V30 31 H 2.030109 1.042978 -5.142168 0
M  V30 32 H 3.612024 1.706789 -4.694834 0
M  V30 33 H 3.125898 2.025586 1.105943 0
M  V30 34 H 3.213313 3.365333 0.001005 0
M  V30 35 H 1.627789 3.072088 0.658685 0
M  V30 36 H -2.820710 0.456009 5.554604 0
M  V30 37 H -4.520071 -1.331511 5.690573 0
M  V30 38 H -4.356597 -3.290608 4.293281 0
M  V30 39 H -2.560340 -3.540212 2.761915 0
M  V30 END ATOM
M  V30 BEGIN BOND
M  V30 1 1 1 2
M  V30 2 1 2 3
M  V30 3 1 3 4
M  V30 4 2 4 5
M  V30 5 1 5 6
M  V30 6 2 6 7
M  V30 7 1 7 8
M  V30 8 2 8 9
M  V30 9 1 8 10
M  V30 10 1 10 11
M  V30 11 1 10 12
M  V30 12 2 12 13
M  V30 13 1 12 14
M  V30 14 1 14 15
M  V30 15 1 4 16
M  V30 16 1 16 17
M  V30 17 2 17 18
M  V30 18 1 18 19
M  V30 19 2 19 20
M  V30 20 1 20 21
M  V30 21 2 21 22
M  V30 22 1 22 3
M  V30 23 1 14 7
M  V30 24 1 22 17
M  V30 25 1 1 23
M  V30 26 1 1 24
M  V30 27 1 1 25
M  V30 28 1 2 26
M  V30 29 1 2 27
M  V30 30 1 5 28
M  V30 31 1 6 29
M  V30 32 1 11 30
M  V30 33 1 11 31
M  V30 34 1 11 32
M  V30 35 1 15 33
M  V30 36 1 15 34
M  V30 37 1 15 35
M  V30 38 1 18 36
M  V30 39 1 19 37
M  V30 40 1 20 38
M  V30 41 1 21 39
M  V30 END BOND
M  V30 END CTAB
M  END
>  <Dataset>  (583) 
ChEMBL_Kinases

>  <Ligand_Instance>  (583) 
nan

>  <PDB_ID>  (583) 
nan

>  <Standardized_SMILES>  (583) 
CCN1/C(=C\C=C2\C(=O)N(C)C(=S)N2C)Sc2ccccc21

>  <Name>  (583) 
nan

>  <Pocket>  (583) 
nan

>  <ATP_Site>  (583) 
nan

>  <Peripheral>  (583) 
nan

>  <Num_H_Atoms_ProtBoundConf>  (583) 
nan

>  <Num_Resolved_Atoms>  (583) 
nan

>  <Num_Not_Resolved_Atoms>  (583) 
nan

$$$$
CHEMBL14285
     RDKit          3D

  0  0  0  0  0  0  0  0  0  0999 V3000
M  V30 BEGIN CTAB
M  V30 COUNTS 25 27 0 0 0
M  V30 BEGIN ATOM
M  V30 1 C 2.573227 -1.787908 3.386219 0
M  V30 2 C 1.275125 -1.896709 2.655607 0
M  V30 3 N 0.467288 -2.932002 2.920623 0
M  V30 4 C -0.729767 -3.091501 2.290894 0
M  V30 5 C -1.172164 -2.188463 1.342638 0
M  V30 6 C -0.347696 -1.116379 1.060652 0
M  V30 7 C 0.860108 -0.979380 1.713837 0
M  V30 8 N 1.507792 0.124254 1.297865 0
M  V30 9 C 0.705026 0.706524 0.362904 0
M  V30 10 C 0.907492 1.872415 -0.377707 0
M  V30 11 C -0.101957 2.207150 -1.257759 0
M  V30 12 O 0.091022 3.380855 -2.010112 0
M  V30 13 C -1.273233 1.509452 -1.471057 0
M  V30 14 C -1.407097 0.368639 -0.706212 0
M  V30 15 C -0.463365 -0.047781 0.193511 0
M  V30 16 H 3.221344 -1.009860 2.970372 0
M  V30 17 H 2.373458 -1.502171 4.454701 0
M  V30 18 H 3.141364 -2.726423 3.358231 0
M  V30 19 H -1.390549 -3.930756 2.502014 0
M  V30 20 H -2.116725 -2.284342 0.823446 0
M  V30 21 H 2.437389 0.468836 1.622729 0
M  V30 22 H 1.791180 2.489873 -0.284513 0
M  V30 23 H 0.055675 3.358583 -3.021925 0
M  V30 24 H -2.002721 1.840042 -2.173004 0
M  V30 25 H -2.316767 -0.237585 -0.823992 0
M  V30 END ATOM
M  V30 BEGIN BOND
M  V30 1 1 1 2
M  V30 2 2 2 3
M  V30 3 1 3 4
M  V30 4 2 4 5
M  V30 5 1 5 6
M  V30 6 2 6 7
M  V30 7 1 7 8
M  V30 8 1 8 9
M  V30 9 2 9 10
M  V30 10 1 10 11
M  V30 11 1 11 12
M  V30 12 2 11 13
M  V30 13 1 13 14
M  V30 14 2 14 15
M  V30 15 1 7 2
M  V30 16 1 15 9
M  V30 17 1 15 6
M  V30 18 1 1 16
M  V30 19 1 1 17
M  V30 20 1 1 18
M  V30 21 1 4 19
M  V30 22 1 5 20
M  V30 23 1 8 21
M  V30 24 1 10 22
M  V30 25 1 12 23
M  V30 26 1 13 24
M  V30 27 1 14 25
M  V30 END BOND
M  V30 END CTAB
M  END
>  <Dataset>  (584) 
ChEMBL_Kinases

>  <Ligand_Instance>  (584) 
nan

>  <PDB_ID>  (584) 
nan

>  <Standardized_SMILES>  (584) 
Cc1nccc2c1[nH]c1cc(O)ccc12

>  <Name>  (584) 
nan

>  <Pocket>  (584) 
nan

>  <ATP_Site>  (584) 
nan

>  <Peripheral>  (584) 
nan

>  <Num_H_Atoms_ProtBoundConf>  (584) 
nan

>  <Num_Resolved_Atoms>  (584) 
nan

>  <Num_Not_Resolved_Atoms>  (584) 
nan

$$$$
CHEMBL142826
     RDKit          3D

  0  0  0  0  0  0  0  0  0  0999 V3000
M  V30 BEGIN CTAB
M  V30 COUNTS 17 17 0 0 0
M  V30 BEGIN ATOM
M  V30 1 O 0.156392 -1.065108 3.363304 0
M  V30 2 C 0.198384 -0.969055 2.121319 0
M  V30 3 C -0.570861 -1.966485 1.333010 0
M  V30 4 Br -1.911957 -0.939386 0.350366 0
M  V30 5 C 0.972215 0.080939 1.484237 0
M  V30 6 C 1.691580 0.973507 2.269762 0
M  V30 7 C 2.436605 2.007090 1.748327 0
M  V30 8 C 2.461369 2.152161 0.354768 0
M  V30 9 Br 3.479316 3.582171 -0.425566 0
M  V30 10 C 1.776772 1.307964 -0.485405 0
M  V30 11 C 1.045081 0.286048 0.126922 0
M  V30 12 H 0.109559 -2.432468 0.618167 0
M  V30 13 H -1.088496 -2.701036 1.991674 0
M  V30 14 H 1.674764 0.861969 3.339584 0
M  V30 15 H 2.999913 2.707164 2.387004 0
M  V30 16 H 1.778756 1.396062 -1.567488 0
M  V30 17 H 0.507559 -0.374482 -0.532960 0
M  V30 END ATOM
M  V30 BEGIN BOND
M  V30 1 2 1 2
M  V30 2 1 2 3
M  V30 3 1 3 4
M  V30 4 1 2 5
M  V30 5 2 5 6
M  V30 6 1 6 7
M  V30 7 2 7 8
M  V30 8 1 8 9
M  V30 9 1 8 10
M  V30 10 2 10 11
M  V30 11 1 11 5
M  V30 12 1 3 12
M  V30 13 1 3 13
M  V30 14 1 6 14
M  V30 15 1 7 15
M  V30 16 1 10 16
M  V30 17 1 11 17
M  V30 END BOND
M  V30 END CTAB
M  END
>  <Dataset>  (585) 
ChEMBL_Kinases

>  <Ligand_Instance>  (585) 
nan

>  <PDB_ID>  (585) 
nan

>  <Standardized_SMILES>  (585) 
O=C(CBr)c1ccc(Br)cc1

>  <Name>  (585) 
nan

>  <Pocket>  (585) 
nan

>  <ATP_Site>  (585) 
nan

>  <Peripheral>  (585) 
nan

>  <Num_H_Atoms_ProtBoundConf>  (585) 
nan

>  <Num_Resolved_Atoms>  (585) 
nan

>  <Num_Not_Resolved_Atoms>  (585) 
nan

$$$$
CHEMBL1428252
     RDKit          3D

  0  0  0  0  0  0  0  0  0  0999 V3000
M  V30 BEGIN CTAB
M  V30 COUNTS 48 50 0 0 0
M  V30 BEGIN ATOM
M  V30 1 C -1.174419 -0.854940 6.752158 0
M  V30 2 O -1.100435 -1.574253 5.542454 0
M  V30 3 C -0.212681 -1.186023 4.553642 0
M  V30 4 C 0.606236 -0.103278 4.725482 0
M  V30 5 C 1.496236 0.309969 3.771542 0
M  V30 6 C 1.571959 -0.388213 2.594583 0
M  V30 7 C 2.409652 -0.241137 1.358235 0
M  V30 8 C 3.283506 0.961291 1.428331 0
M  V30 9 C 4.108160 1.084355 0.197788 0
M  V30 10 O 5.285735 0.588142 0.270990 0
M  V30 11 O 4.818040 1.229605 -0.968318 0
M  V30 12 N 1.604049 -0.317326 0.167011 0
M  V30 13 C 0.323460 0.137818 0.131582 0
M  V30 14 O -0.226289 0.679579 1.166120 0
M  V30 15 C -0.965316 0.465696 -0.300508 0
M  V30 16 C -0.606095 -0.175150 -1.610623 0
M  V30 17 C -1.395091 -0.327395 -2.795513 0
M  V30 18 C -1.102916 -0.916425 -4.036423 0
M  V30 19 C -2.022882 -0.946633 -5.028088 0
M  V30 20 Br -1.317176 -1.815406 -6.589477 0
M  V30 21 C -3.276886 -0.427649 -4.927617 0
M  V30 22 C -3.663442 0.172305 -3.755696 0
M  V30 23 C -2.707803 0.174136 -2.799076 0
M  V30 24 O -3.040740 0.747306 -1.637759 0
M  V30 25 C -2.163303 0.770409 -0.702358 0
M  V30 26 O -2.394956 1.310099 0.471966 0
M  V30 27 C 0.732295 -1.501715 2.413303 0
M  V30 28 C -0.166500 -1.914106 3.384426 0
M  V30 29 O -1.000251 -3.012202 3.215821 0
M  V30 30 C -1.009422 -3.798778 2.046550 0
M  V30 31 H -1.910972 -1.346868 7.449490 0
M  V30 32 H -0.178970 -0.806038 7.233949 0
M  V30 33 H -1.554787 0.183423 6.598681 0
M  V30 34 H 0.613693 0.510911 5.632219 0
M  V30 35 H 2.198083 1.129797 3.756569 0
M  V30 36 H 3.060397 -1.164300 1.320952 0
M  V30 37 H 2.662731 1.896028 1.573762 0
M  V30 38 H 3.956471 0.851133 2.319167 0
M  V30 39 H 4.329063 1.224865 -1.885135 0
M  V30 40 H 1.733799 -0.663706 -0.796199 0
M  V30 41 H 0.319968 -0.698863 -2.037871 0
M  V30 42 H -0.076239 -1.313478 -4.042761 0
M  V30 43 H -3.928595 -0.500152 -5.772250 0
M  V30 44 H -4.637553 0.605329 -3.599375 0
M  V30 45 H 0.685314 -2.150606 1.528184 0
M  V30 46 H -1.145218 -3.153249 1.155931 0
M  V30 47 H -0.149336 -4.468821 1.931806 0
M  V30 48 H -1.926547 -4.432697 2.087077 0
M  V30 END ATOM
M  V30 BEGIN BOND
M  V30 1 1 1 2
M  V30 2 1 2 3
M  V30 3 2 3 4
M  V30 4 1 4 5
M  V30 5 2 5 6
M  V30 6 1 6 7
M  V30 7 1 7 8
M  V30 8 1 8 9
M  V30 9 2 9 10
M  V30 10 1 9 11
M  V30 11 1 7 12
M  V30 12 1 12 13
M  V30 13 2 13 14
M  V30 14 1 13 15
M  V30 15 2 15 16
M  V30 16 1 16 17
M  V30 17 2 17 18
M  V30 18 1 18 19
M  V30 19 1 19 20
M  V30 20 2 19 21
M  V30 21 1 21 22
M  V30 22 2 22 23
M  V30 23 1 23 24
M  V30 24 1 24 25
M  V30 25 2 25 26
M  V30 26 1 6 27
M  V30 27 2 27 28
M  V30 28 1 28 29
M  V30 29 1 29 30
M  V30 30 1 28 3
M  V30 31 1 25 15
M  V30 32 1 23 17
M  V30 33 1 1 31
M  V30 34 1 1 32
M  V30 35 1 1 33
M  V30 36 1 4 34
M  V30 37 1 5 35
M  V30 38 1 7 36
M  V30 39 1 8 37
M  V30 40 1 8 38
M  V30 41 1 11 39
M  V30 42 1 12 40
M  V30 43 1 16 41
M  V30 44 1 18 42
M  V30 45 1 21 43
M  V30 46 1 22 44
M  V30 47 1 27 45
M  V30 48 1 30 46
M  V30 49 1 30 47
M  V30 50 1 30 48
M  V30 END BOND
M  V30 END CTAB
M  END
>  <Dataset>  (586) 
ChEMBL_Kinases

>  <Ligand_Instance>  (586) 
nan

>  <PDB_ID>  (586) 
nan

>  <Standardized_SMILES>  (586) 
COc1ccc(C(CC(=O)O)NC(=O)c2cc3cc(Br)ccc3oc2=O)cc1OC

>  <Name>  (586) 
nan

>  <Pocket>  (586) 
nan

>  <ATP_Site>  (586) 
nan

>  <Peripheral>  (586) 
nan

>  <Num_H_Atoms_ProtBoundConf>  (586) 
nan

>  <Num_Resolved_Atoms>  (586) 
nan

>  <Num_Not_Resolved_Atoms>  (586) 
nan

$$$$
CHEMBL1426920
     RDKit          3D

  0  0  0  0  0  0  0  0  0  0999 V3000
M  V30 BEGIN CTAB
M  V30 COUNTS 57 57 0 0 0
M  V30 BEGIN ATOM
M  V30 1 C -1.022884 -3.917881 6.870859 0
M  V30 2 C -0.340404 -3.258235 5.667373 0
M  V30 3 C -0.472386 -4.253330 4.536483 0
M  V30 4 C 0.165187 -3.728801 3.263515 0
M  V30 5 C 1.632020 -3.450951 3.442544 0
M  V30 6 C 2.196563 -2.950471 2.148806 0
M  V30 7 C 1.573910 -1.683797 1.642000 0
M  V30 8 C 2.287467 -1.348694 0.344058 0
M  V30 9 C 1.770131 -0.096797 -0.287990 0
M  V30 10 O 0.413065 -0.163363 -0.603784 0
M  V30 11 C 0.113028 1.056327 -1.167951 0
M  V30 12 O -0.734919 1.694561 -0.303319 0
M  V30 13 C -2.067865 1.508944 -0.500534 0
M  V30 14 C -2.699183 2.890292 -0.656566 0
M  V30 15 O -4.068943 2.802368 -0.863940 0
M  V30 16 C -2.527683 0.534094 -1.495269 0
M  V30 17 O -3.766121 0.983141 -2.008828 0
M  V30 18 C -1.650593 0.270402 -2.670172 0
M  V30 19 O -2.244338 0.644789 -3.891858 0
M  V30 20 C -0.394498 1.072016 -2.542210 0
M  V30 21 N 0.571938 0.782322 -3.574286 0
M  V30 22 C 1.167417 1.445668 -4.664744 0
M  V30 23 C 2.147729 0.604260 -5.415878 0
M  V30 24 O 0.897179 2.618007 -4.965457 0
M  V30 25 H -1.240040 -3.188430 7.656822 0
M  V30 26 H -1.953796 -4.432497 6.558193 0
M  V30 27 H -0.314149 -4.734670 7.188227 0
M  V30 28 H 0.732841 -3.095235 5.890772 0
M  V30 29 H -0.894487 -2.328372 5.411402 0
M  V30 30 H 0.025442 -5.179478 4.849386 0
M  V30 31 H -1.548138 -4.393508 4.286504 0
M  V30 32 H -0.323854 -2.767735 2.974555 0
M  V30 33 H 0.047358 -4.471706 2.459157 0
M  V30 34 H 2.203626 -4.378540 3.694450 0
M  V30 35 H 1.806358 -2.657712 4.217168 0
M  V30 36 H 2.006639 -3.763787 1.392321 0
M  V30 37 H 3.305614 -2.860241 2.240854 0
M  V30 38 H 0.504362 -1.747062 1.468039 0
M  V30 39 H 1.762502 -0.913313 2.416323 0
M  V30 40 H 3.349822 -1.167357 0.608974 0
M  V30 41 H 2.265954 -2.201514 -0.362481 0
M  V30 42 H 2.394368 0.119924 -1.174304 0
M  V30 43 H 1.888930 0.747863 0.429167 0
M  V30 44 H 1.082206 1.637488 -1.156211 0
M  V30 45 H -2.456697 1.155348 0.503261 0
M  V30 46 H -2.273521 3.460709 -1.507902 0
M  V30 47 H -2.546644 3.508972 0.247820 0
M  V30 48 H -4.351343 3.246311 -1.701962 0
M  V30 49 H -2.763259 -0.461783 -1.037252 0
M  V30 50 H -4.528814 0.575546 -1.560974 0
M  V30 51 H -1.416582 -0.823634 -2.817892 0
M  V30 52 H -2.776487 1.467446 -3.821263 0
M  V30 53 H -0.698442 2.134662 -2.741760 0
M  V30 54 H 0.765076 -0.215276 -3.273214 0
M  V30 55 H 2.791905 1.283842 -5.986696 0
M  V30 56 H 1.587273 -0.013775 -6.173789 0
M  V30 57 H 2.682172 -0.111113 -4.789454 0
M  V30 END ATOM
M  V30 BEGIN BOND
M  V30 1 1 1 2
M  V30 2 1 2 3
M  V30 3 1 3 4
M  V30 4 1 4 5
M  V30 5 1 5 6
M  V30 6 1 6 7
M  V30 7 1 7 8
M  V30 8 1 8 9
M  V30 9 1 9 10
M  V30 10 1 10 11
M  V30 11 1 11 12
M  V30 12 1 12 13
M  V30 13 1 13 14
M  V30 14 1 14 15
M  V30 15 1 13 16
M  V30 16 1 16 17
M  V30 17 1 16 18
M  V30 18 1 18 19
M  V30 19 1 18 20
M  V30 20 1 20 21
M  V30 21 1 21 22
M  V30 22 1 22 23
M  V30 23 2 22 24
M  V30 24 1 20 11
M  V30 25 1 1 25
M  V30 26 1 1 26
M  V30 27 1 1 27
M  V30 28 1 2 28
M  V30 29 1 2 29
M  V30 30 1 3 30
M  V30 31 1 3 31
M  V30 32 1 4 32
M  V30 33 1 4 33
M  V30 34 1 5 34
M  V30 35 1 5 35
M  V30 36 1 6 36
M  V30 37 1 6 37
M  V30 38 1 7 38
M  V30 39 1 7 39
M  V30 40 1 8 40
M  V30 41 1 8 41
M  V30 42 1 9 42
M  V30 43 1 9 43
M  V30 44 1 11 44
M  V30 45 1 13 45
M  V30 46 1 14 46
M  V30 47 1 14 47
M  V30 48 1 15 48
M  V30 49 1 16 49
M  V30 50 1 17 50
M  V30 51 1 18 51
M  V30 52 1 19 52
M  V30 53 1 20 53
M  V30 54 1 21 54
M  V30 55 1 23 55
M  V30 56 1 23 56
M  V30 57 1 23 57
M  V30 END BOND
M  V30 END CTAB
M  END
>  <Dataset>  (587) 
ChEMBL_Kinases

>  <Ligand_Instance>  (587) 
nan

>  <PDB_ID>  (587) 
nan

>  <Standardized_SMILES>  (587) 
CCCCCCCCCOC1OC(CO)C(O)C(O)C1NC(C)=O

>  <Name>  (587) 
nan

>  <Pocket>  (587) 
nan

>  <ATP_Site>  (587) 
nan

>  <Peripheral>  (587) 
nan

>  <Num_H_Atoms_ProtBoundConf>  (587) 
nan

>  <Num_Resolved_Atoms>  (587) 
nan

>  <Num_Not_Resolved_Atoms>  (587) 
nan

$$$$
CHEMBL1427061
     RDKit          3D

  0  0  0  0  0  0  0  0  0  0999 V3000
M  V30 BEGIN CTAB
M  V30 COUNTS 36 38 0 0 0
M  V30 BEGIN ATOM
M  V30 1 C 1.370609 -4.031081 -0.292181 0
M  V30 2 N 2.315908 -3.480706 0.662046 0
M  V30 3 C 3.073740 -4.340550 1.469368 0
M  V30 4 O 2.986044 -5.594946 1.241453 0
M  V30 5 C 4.008195 -4.117750 2.592296 0
M  V30 6 S 4.377371 -2.353219 2.745372 0
M  V30 7 C 3.314866 -1.469553 1.623950 0
M  V30 8 C 3.383411 -0.088233 1.649509 0
M  V30 9 C 2.629237 0.726182 0.847427 0
M  V30 10 C 1.742844 0.153060 -0.045493 0
M  V30 11 N 0.873384 0.851593 -0.962351 0
M  V30 12 C -0.383795 1.118907 -0.337574 0
M  V30 13 O -0.635014 0.764363 0.858653 0
M  V30 14 N -1.443098 1.790532 -0.983419 0
M  V30 15 C -2.703783 2.067285 -0.379744 0
M  V30 16 C -3.108530 3.176619 0.351586 0
M  V30 17 C -4.398890 3.207923 0.836763 0
M  V30 18 C -5.239690 2.145799 0.582712 0
M  V30 19 C -4.840953 1.044518 -0.142193 0
M  V30 20 N -3.592398 1.069335 -0.582626 0
M  V30 21 C 1.661756 -1.244329 -0.083429 0
M  V30 22 C 2.430254 -2.053282 0.733206 0
M  V30 23 H 1.735865 -3.861184 -1.331688 0
M  V30 24 H 1.207471 -5.117923 -0.071401 0
M  V30 25 H 0.353111 -3.575112 -0.174096 0
M  V30 26 H 3.469808 -4.449267 3.515592 0
M  V30 27 H 4.946445 -4.700319 2.481791 0
M  V30 28 H 4.067390 0.429651 2.336071 0
M  V30 29 H 2.654708 1.798289 0.838744 0
M  V30 30 H 1.034158 1.162444 -1.948377 0
M  V30 31 H -1.315900 2.118099 -1.977900 0
M  V30 32 H -2.319594 3.910151 0.451391 0
M  V30 33 H -4.643063 4.101874 1.396312 0
M  V30 34 H -6.253606 2.218374 0.989220 0
M  V30 35 H -5.524373 0.222503 -0.326932 0
M  V30 36 H 0.979780 -1.726916 -0.769076 0
M  V30 END ATOM
M  V30 BEGIN BOND
M  V30 1 1 1 2
M  V30 2 1 2 3
M  V30 3 2 3 4
M  V30 4 1 3 5
M  V30 5 1 5 6
M  V30 6 1 6 7
M  V30 7 2 7 8
M  V30 8 1 8 9
M  V30 9 2 9 10
M  V30 10 1 10 11
M  V30 11 1 11 12
M  V30 12 2 12 13
M  V30 13 1 12 14
M  V30 14 1 14 15
M  V30 15 2 15 16
M  V30 16 1 16 17
M  V30 17 2 17 18
M  V30 18 1 18 19
M  V30 19 2 19 20
M  V30 20 1 10 21
M  V30 21 2 21 22
M  V30 22 1 22 2
M  V30 23 1 22 7
M  V30 24 1 20 15
M  V30 25 1 1 23
M  V30 26 1 1 24
M  V30 27 1 1 25
M  V30 28 1 5 26
M  V30 29 1 5 27
M  V30 30 1 8 28
M  V30 31 1 9 29
M  V30 32 1 11 30
M  V30 33 1 14 31
M  V30 34 1 16 32
M  V30 35 1 17 33
M  V30 36 1 18 34
M  V30 37 1 19 35
M  V30 38 1 21 36
M  V30 END BOND
M  V30 END CTAB
M  END
>  <Dataset>  (588) 
ChEMBL_Kinases

>  <Ligand_Instance>  (588) 
nan

>  <PDB_ID>  (588) 
nan

>  <Standardized_SMILES>  (588) 
CN1C(=O)CSc2ccc(NC(=O)Nc3ccccn3)cc21

>  <Name>  (588) 
nan

>  <Pocket>  (588) 
nan

>  <ATP_Site>  (588) 
nan

>  <Peripheral>  (588) 
nan

>  <Num_H_Atoms_ProtBoundConf>  (588) 
nan

>  <Num_Resolved_Atoms>  (588) 
nan

>  <Num_Not_Resolved_Atoms>  (588) 
nan

$$$$
CHEMBL1427075
     RDKit          3D

  0  0  0  0  0  0  0  0  0  0999 V3000
M  V30 BEGIN CTAB
M  V30 COUNTS 32 33 0 0 0
M  V30 BEGIN ATOM
M  V30 1 C 0.414916 -4.674514 1.307386 0
M  V30 2 C 0.665291 -3.601726 0.285356 0
M  V30 3 O 1.093759 -3.773380 -0.889048 0
M  V30 4 N 0.405193 -2.246708 0.640298 0
M  V30 5 C -0.085208 -1.717634 1.889002 0
M  V30 6 O -0.147972 -2.387467 2.974382 0
M  V30 7 N -0.478709 -0.343379 1.699153 0
M  V30 8 C -0.626150 0.597704 2.776310 0
M  V30 9 C -0.647932 -0.259563 0.251231 0
M  V30 10 C 0.573889 -1.083995 -0.174045 0
M  V30 11 N 1.630805 -0.188758 0.287274 0
M  V30 12 C 2.853512 -0.551727 0.962272 0
M  V30 13 C 1.166484 1.125740 -0.087921 0
M  V30 14 O 1.917162 2.129653 -0.223633 0
M  V30 15 N -0.261579 1.034272 -0.261102 0
M  V30 16 C -1.000553 2.107585 -0.844434 0
M  V30 17 C -2.479453 1.939411 -0.991262 0
M  V30 18 O -0.500727 3.208499 -1.254862 0
M  V30 19 H -0.516790 -4.411626 1.853917 0
M  V30 20 H 0.249409 -5.661395 0.839026 0
M  V30 21 H 1.245252 -4.792874 2.008912 0
M  V30 22 H -0.396644 1.637141 2.417891 0
M  V30 23 H -1.641731 0.506587 3.182904 0
M  V30 24 H 0.135605 0.377962 3.570589 0
M  V30 25 H -1.589599 -0.652209 -0.115468 0
M  V30 26 H 0.604721 -1.246018 -1.255440 0
M  V30 27 H 2.666814 -1.428887 1.641797 0
M  V30 28 H 3.685243 -0.821112 0.295746 0
M  V30 29 H 3.219902 0.244626 1.642742 0
M  V30 30 H -2.908600 1.950358 0.030727 0
M  V30 31 H -2.908836 2.721050 -1.634735 0
M  V30 32 H -2.639587 0.918086 -1.417588 0
M  V30 END ATOM
M  V30 BEGIN BOND
M  V30 1 1 1 2
M  V30 2 2 2 3
M  V30 3 1 2 4
M  V30 4 1 4 5
M  V30 5 2 5 6
M  V30 6 1 5 7
M  V30 7 1 7 8
M  V30 8 1 7 9
M  V30 9 1 9 10
M  V30 10 1 10 11
M  V30 11 1 11 12
M  V30 12 1 11 13
M  V30 13 2 13 14
M  V30 14 1 13 15
M  V30 15 1 15 16
M  V30 16 1 16 17
M  V30 17 2 16 18
M  V30 18 1 10 4
M  V30 19 1 15 9
M  V30 20 1 1 19
M  V30 21 1 1 20
M  V30 22 1 1 21
M  V30 23 1 8 22
M  V30 24 1 8 23
M  V30 25 1 8 24
M  V30 26 1 9 25
M  V30 27 1 10 26
M  V30 28 1 12 27
M  V30 29 1 12 28
M  V30 30 1 12 29
M  V30 31 1 17 30
M  V30 32 1 17 31
M  V30 33 1 17 32
M  V30 END BOND
M  V30 END CTAB
M  END
>  <Dataset>  (589) 
ChEMBL_Kinases

>  <Ligand_Instance>  (589) 
nan

>  <PDB_ID>  (589) 
nan

>  <Standardized_SMILES>  (589) 
CC(=O)N1C(=O)N(C)C2C1N(C)C(=O)N2C(C)=O

>  <Name>  (589) 
nan

>  <Pocket>  (589) 
nan

>  <ATP_Site>  (589) 
nan

>  <Peripheral>  (589) 
nan

>  <Num_H_Atoms_ProtBoundConf>  (589) 
nan

>  <Num_Resolved_Atoms>  (589) 
nan

>  <Num_Not_Resolved_Atoms>  (589) 
nan

$$$$
CHEMBL1427154
     RDKit          3D

  0  0  0  0  0  0  0  0  0  0999 V3000
M  V30 BEGIN CTAB
M  V30 COUNTS 40 41 0 0 0
M  V30 BEGIN ATOM
M  V30 1 C -3.596214 0.091582 -1.288334 0
M  V30 2 O -2.381295 0.411094 -0.670276 0
M  V30 3 C -1.185886 0.561168 -1.342392 0
M  V30 4 C -1.210611 0.378801 -2.725670 0
M  V30 5 C -0.002437 0.533852 -3.378484 0
M  V30 6 C 0.018061 0.349445 -4.847568 0
M  V30 7 C 1.169966 0.850773 -2.714592 0
M  V30 8 C 1.115732 1.015848 -1.344517 0
M  V30 9 C -0.049028 0.875867 -0.641152 0
M  V30 10 O -0.143980 1.032013 0.721769 0
M  V30 11 C 0.967171 1.357618 1.547027 0
M  V30 12 C 0.586497 1.466886 2.983634 0
M  V30 13 O 0.047191 0.349956 3.584652 0
M  V30 14 C 0.537368 -0.891072 3.788099 0
M  V30 15 C 1.737073 -1.496655 3.481762 0
M  V30 16 C 2.024532 -2.806343 3.793857 0
M  V30 17 C 3.335504 -3.358178 3.422528 0
M  V30 18 C 1.056466 -3.539442 4.445632 0
M  V30 19 C -0.169516 -3.008526 4.787948 0
M  V30 20 C -0.417362 -1.671855 4.450105 0
M  V30 21 Cl -2.027885 -1.141769 4.955357 0
M  V30 22 H -4.375315 0.054366 -0.506771 0
M  V30 23 H -3.900189 0.805059 -2.078959 0
M  V30 24 H -3.576702 -0.910415 -1.769315 0
M  V30 25 H -2.108369 0.131287 -3.271832 0
M  V30 26 H -0.922501 0.692015 -5.315574 0
M  V30 27 H 0.864151 0.915690 -5.302941 0
M  V30 28 H 0.122078 -0.739210 -5.066179 0
M  V30 29 H 2.097750 0.964914 -3.254341 0
M  V30 30 H 2.028457 1.263459 -0.820800 0
M  V30 31 H 1.235948 2.410982 1.226332 0
M  V30 32 H 1.869684 0.775342 1.336557 0
M  V30 33 H 1.541044 1.711754 3.538621 0
M  V30 34 H -0.020065 2.386183 3.095058 0
M  V30 35 H 2.411597 -0.841045 2.983164 0
M  V30 36 H 4.056013 -3.312159 4.248428 0
M  V30 37 H 3.776184 -2.863834 2.533268 0
M  V30 38 H 3.240601 -4.443303 3.153784 0
M  V30 39 H 1.313957 -4.556150 4.673393 0
M  V30 40 H -0.862191 -3.654442 5.294546 0
M  V30 END ATOM
M  V30 BEGIN BOND
M  V30 1 1 1 2
M  V30 2 1 2 3
M  V30 3 2 3 4
M  V30 4 1 4 5
M  V30 5 1 5 6
M  V30 6 2 5 7
M  V30 7 1 7 8
M  V30 8 2 8 9
M  V30 9 1 9 10
M  V30 10 1 10 11
M  V30 11 1 11 12
M  V30 12 1 12 13
M  V30 13 1 13 14
M  V30 14 2 14 15
M  V30 15 1 15 16
M  V30 16 1 16 17
M  V30 17 2 16 18
M  V30 18 1 18 19
M  V30 19 2 19 20
M  V30 20 1 20 21
M  V30 21 1 9 3
M  V30 22 1 20 14
M  V30 23 1 1 22
M  V30 24 1 1 23
M  V30 25 1 1 24
M  V30 26 1 4 25
M  V30 27 1 6 26
M  V30 28 1 6 27
M  V30 29 1 6 28
M  V30 30 1 7 29
M  V30 31 1 8 30
M  V30 32 1 11 31
M  V30 33 1 11 32
M  V30 34 1 12 33
M  V30 35 1 12 34
M  V30 36 1 15 35
M  V30 37 1 17 36
M  V30 38 1 17 37
M  V30 39 1 17 38
M  V30 40 1 18 39
M  V30 41 1 19 40
M  V30 END BOND
M  V30 END CTAB
M  END
>  <Dataset>  (590) 
ChEMBL_Kinases

>  <Ligand_Instance>  (590) 
nan

>  <PDB_ID>  (590) 
nan

>  <Standardized_SMILES>  (590) 
COc1cc(C)ccc1OCCOc1cc(C)ccc1Cl

>  <Name>  (590) 
nan

>  <Pocket>  (590) 
nan

>  <ATP_Site>  (590) 
nan

>  <Peripheral>  (590) 
nan

>  <Num_H_Atoms_ProtBoundConf>  (590) 
nan

>  <Num_Resolved_Atoms>  (590) 
nan

>  <Num_Not_Resolved_Atoms>  (590) 
nan

$$$$
CHEMBL1427245
     RDKit          3D

  0  0  0  0  0  0  0  0  0  0999 V3000
M  V30 BEGIN CTAB
M  V30 COUNTS 43 46 0 0 0
M  V30 BEGIN ATOM
M  V30 1 C -1.865756 -6.720241 -2.769775 0
M  V30 2 C -2.453810 -5.686554 -1.872784 0
M  V30 3 C -3.764971 -5.719209 -1.409923 0
M  V30 4 C -4.260304 -4.736631 -0.580826 0
M  V30 5 C -3.462968 -3.676099 -0.177965 0
M  V30 6 C -2.153619 -3.669791 -0.657480 0
M  V30 7 N -1.363452 -2.568040 -0.224896 0
M  V30 8 C -1.231206 -1.317739 -0.877802 0
M  V30 9 O -1.826096 -1.073729 -1.933965 0
M  V30 10 C -0.383069 -0.267743 -0.323226 0
M  V30 11 C -0.288347 0.938496 -1.002311 0
M  V30 12 C 0.483641 1.994981 -0.566013 0
M  V30 13 C 1.207985 1.868288 0.604125 0
M  V30 14 C 2.009065 2.877432 1.116198 0
M  V30 15 Cl 2.049342 4.362758 0.165774 0
M  V30 16 C 2.723194 2.704602 2.302463 0
M  V30 17 C 2.601573 1.492647 2.945173 0
M  V30 18 N 1.822526 0.522821 2.439322 0
M  V30 19 C 1.126363 0.679128 1.291189 0
M  V30 20 C 0.349163 -0.366779 0.839895 0
M  V30 21 C 3.389419 1.379543 4.201111 0
M  V30 22 C 3.578609 2.727340 4.860230 0
M  V30 23 C 4.353973 3.631850 3.932569 0
M  V30 24 C 3.531554 3.881250 2.711463 0
M  V30 25 N -1.708691 -4.649126 -1.465828 0
M  V30 26 H -2.613979 -7.301240 -3.310343 0
M  V30 27 H -1.152430 -6.192420 -3.461191 0
M  V30 28 H -1.227769 -7.396991 -2.135756 0
M  V30 29 H -4.398403 -6.557147 -1.726952 0
M  V30 30 H -5.297748 -4.774079 -0.222236 0
M  V30 31 H -3.883741 -2.917689 0.476187 0
M  V30 32 H -0.869669 -2.792119 0.666413 0
M  V30 33 H -0.807783 1.162097 -1.931761 0
M  V30 34 H 0.569880 2.935375 -1.076889 0
M  V30 35 H 0.296927 -1.279508 1.382824 0
M  V30 36 H 4.407841 0.983672 4.005219 0
M  V30 37 H 2.896862 0.717501 4.943823 0
M  V30 38 H 2.592280 3.215857 5.083435 0
M  V30 39 H 4.171948 2.561934 5.775090 0
M  V30 40 H 5.331273 3.155581 3.695058 0
M  V30 41 H 4.497740 4.617479 4.454824 0
M  V30 42 H 2.843242 4.733989 2.907637 0
M  V30 43 H 4.154379 4.138874 1.816690 0
M  V30 END ATOM
M  V30 BEGIN BOND
M  V30 1 1 1 2
M  V30 2 2 2 3
M  V30 3 1 3 4
M  V30 4 2 4 5
M  V30 5 1 5 6
M  V30 6 1 6 7
M  V30 7 1 7 8
M  V30 8 2 8 9
M  V30 9 1 8 10
M  V30 10 2 10 11
M  V30 11 1 11 12
M  V30 12 2 12 13
M  V30 13 1 13 14
M  V30 14 1 14 15
M  V30 15 2 14 16
M  V30 16 1 16 17
M  V30 17 2 17 18
M  V30 18 1 18 19
M  V30 19 2 19 20
M  V30 20 1 17 21
M  V30 21 1 21 22
M  V30 22 1 22 23
M  V30 23 1 23 24
M  V30 24 2 6 25
M  V30 25 1 25 2
M  V30 26 1 20 10
M  V30 27 1 19 13
M  V30 28 1 24 16
M  V30 29 1 1 26
M  V30 30 1 1 27
M  V30 31 1 1 28
M  V30 32 1 3 29
M  V30 33 1 4 30
M  V30 34 1 5 31
M  V30 35 1 7 32
M  V30 36 1 11 33
M  V30 37 1 12 34
M  V30 38 1 20 35
M  V30 39 1 21 36
M  V30 40 1 21 37
M  V30 41 1 22 38
M  V30 42 1 22 39
M  V30 43 1 23 40
M  V30 44 1 23 41
M  V30 45 1 24 42
M  V30 46 1 24 43
M  V30 END BOND
M  V30 END CTAB
M  END
>  <Dataset>  (591) 
ChEMBL_Kinases

>  <Ligand_Instance>  (591) 
nan

>  <PDB_ID>  (591) 
nan

>  <Standardized_SMILES>  (591) 
Cc1cccc(NC(=O)c2ccc3c(Cl)c4c(nc3c2)CCCC4)n1

>  <Name>  (591) 
nan

>  <Pocket>  (591) 
nan

>  <ATP_Site>  (591) 
nan

>  <Peripheral>  (591) 
nan

>  <Num_H_Atoms_ProtBoundConf>  (591) 
nan

>  <Num_Resolved_Atoms>  (591) 
nan

>  <Num_Not_Resolved_Atoms>  (591) 
nan

$$$$
CHEMBL1427439
     RDKit          3D

  0  0  0  0  0  0  0  0  0  0999 V3000
M  V30 BEGIN CTAB
M  V30 COUNTS 36 39 0 0 0
M  V30 BEGIN ATOM
M  V30 1 C 0.713296 -2.556939 3.173982 0
M  V30 2 C 1.105170 -3.239128 1.931058 0
M  V30 3 C 0.799305 -4.549951 1.699111 0
M  V30 4 C 1.124200 -5.261294 0.570275 0
M  V30 5 C 1.827748 -4.602775 -0.437055 0
M  V30 6 C 2.151592 -3.268171 -0.226048 0
M  V30 7 C 2.910687 -2.615891 -1.352700 0
M  V30 8 S 1.626531 -1.909272 -2.437136 0
M  V30 9 C 0.760397 -0.580836 -1.602895 0
M  V30 10 N 1.348541 0.634406 -1.809974 0
M  V30 11 N 0.852720 1.749803 -1.271718 0
M  V30 12 C -0.253174 1.702221 -0.501923 0
M  V30 13 C -1.057459 2.598067 0.214403 0
M  V30 14 C -0.892232 3.963253 0.328412 0
M  V30 15 C -1.800995 4.672629 1.086143 0
M  V30 16 C -2.821221 3.960040 1.682339 0
M  V30 17 C -3.007675 2.594980 1.583313 0
M  V30 18 C -2.077757 1.888324 0.811346 0
M  V30 19 N -1.962130 0.563581 0.505774 0
M  V30 20 C -0.887003 0.385301 -0.279647 0
M  V30 21 N -0.359644 -0.741693 -0.842197 0
M  V30 22 C 1.809150 -2.571755 0.928984 0
M  V30 23 H 0.213772 -1.602698 2.891597 0
M  V30 24 H 1.602692 -2.302048 3.770550 0
M  V30 25 H -0.022829 -3.206871 3.722937 0
M  V30 26 H 0.251094 -5.141433 2.432033 0
M  V30 27 H 0.884366 -6.294531 0.382339 0
M  V30 28 H 2.103783 -5.120056 -1.340719 0
M  V30 29 H 3.592839 -1.872973 -0.938284 0
M  V30 30 H 3.486709 -3.348270 -1.915036 0
M  V30 31 H 1.284668 2.668514 -1.419724 0
M  V30 32 H -0.072354 4.483219 -0.158771 0
M  V30 33 H -1.723785 5.747281 1.212678 0
M  V30 34 H -3.561567 4.496822 2.292082 0
M  V30 35 H -3.823762 2.083752 2.070505 0
M  V30 36 H 2.087992 -1.532479 1.038949 0
M  V30 END ATOM
M  V30 BEGIN BOND
M  V30 1 1 1 2
M  V30 2 2 2 3
M  V30 3 1 3 4
M  V30 4 2 4 5
M  V30 5 1 5 6
M  V30 6 1 6 7
M  V30 7 1 7 8
M  V30 8 1 8 9
M  V30 9 2 9 10
M  V30 10 1 10 11
M  V30 11 1 11 12
M  V30 12 2 12 13
M  V30 13 1 13 14
M  V30 14 2 14 15
M  V30 15 1 15 16
M  V30 16 2 16 17
M  V30 17 1 17 18
M  V30 18 2 18 19
M  V30 19 1 19 20
M  V30 20 2 20 21
M  V30 21 2 6 22
M  V30 22 1 22 2
M  V30 23 1 21 9
M  V30 24 1 20 12
M  V30 25 1 18 13
M  V30 26 1 1 23
M  V30 27 1 1 24
M  V30 28 1 1 25
M  V30 29 1 3 26
M  V30 30 1 4 27
M  V30 31 1 5 28
M  V30 32 1 7 29
M  V30 33 1 7 30
M  V30 34 1 11 31
M  V30 35 1 14 32
M  V30 36 1 15 33
M  V30 37 1 16 34
M  V30 38 1 17 35
M  V30 39 1 22 36
M  V30 END BOND
M  V30 END CTAB
M  END
>  <Dataset>  (592) 
ChEMBL_Kinases

>  <Ligand_Instance>  (592) 
nan

>  <PDB_ID>  (592) 
nan

>  <Standardized_SMILES>  (592) 
Cc1cccc(CSc2n[nH]c3c4ccccc4nc-3n2)c1

>  <Name>  (592) 
nan

>  <Pocket>  (592) 
nan

>  <ATP_Site>  (592) 
nan

>  <Peripheral>  (592) 
nan

>  <Num_H_Atoms_ProtBoundConf>  (592) 
nan

>  <Num_Resolved_Atoms>  (592) 
nan

>  <Num_Not_Resolved_Atoms>  (592) 
nan

$$$$
CHEMBL1427458
     RDKit          3D

  0  0  0  0  0  0  0  0  0  0999 V3000
M  V30 BEGIN CTAB
M  V30 COUNTS 42 44 0 0 0
M  V30 BEGIN ATOM
M  V30 1 C 2.227729 -7.446281 1.543405 0
M  V30 2 C 2.577305 -6.051546 1.113070 0
M  V30 3 C 3.295516 -5.213865 1.934559 0
M  V30 4 C 3.585004 -3.930950 1.467737 0
M  V30 5 C 3.147651 -3.550205 0.215823 0
M  V30 6 O 3.393648 -2.305526 -0.311462 0
M  V30 7 C 2.610499 -1.190437 -0.188272 0
M  V30 8 C 1.601910 -0.827955 -1.041160 0
M  V30 9 C 0.849603 0.313984 -0.856290 0
M  V30 10 C 1.068122 1.163585 0.202986 0
M  V30 11 C 0.317439 2.384500 0.467427 0
M  V30 12 O 0.625415 3.089954 1.481092 0
M  V30 13 N -0.734723 2.833050 -0.336636 0
M  V30 14 C -1.561016 4.016992 -0.193485 0
M  V30 15 C -2.537184 3.731475 0.891023 0
M  V30 16 C -2.420966 3.982182 2.241547 0
M  V30 17 C -3.457249 3.628210 3.082554 0
M  V30 18 N -4.601990 3.043636 2.686788 0
M  V30 19 C -4.733269 2.788932 1.357737 0
M  V30 20 C -3.720730 3.125270 0.470940 0
M  V30 21 C 2.089298 0.788440 1.059001 0
M  V30 22 C 2.852298 -0.354790 0.885580 0
M  V30 23 C 2.423172 -4.396651 -0.611322 0
M  V30 24 C 2.129522 -5.675076 -0.157203 0
M  V30 25 H 1.937087 -7.418126 2.610496 0
M  V30 26 H 1.334859 -7.814521 0.983001 0
M  V30 27 H 3.116812 -8.062488 1.351933 0
M  V30 28 H 3.630793 -5.533060 2.918005 0
M  V30 29 H 4.139307 -3.224901 2.052712 0
M  V30 30 H 1.422474 -1.489326 -1.876496 0
M  V30 31 H 0.080309 0.541489 -1.552861 0
M  V30 32 H -0.960994 2.232714 -1.157869 0
M  V30 33 H -2.096637 4.271450 -1.112433 0
M  V30 34 H -0.959865 4.897158 0.128123 0
M  V30 35 H -1.501900 4.449898 2.529658 0
M  V30 36 H -3.315943 3.847963 4.143712 0
M  V30 37 H -5.657112 2.318391 1.047900 0
M  V30 38 H -3.910250 2.884793 -0.572064 0
M  V30 39 H 2.301361 1.424117 1.908130 0
M  V30 40 H 3.635682 -0.591267 1.590891 0
M  V30 41 H 2.070648 -4.117889 -1.596189 0
M  V30 42 H 1.571254 -6.355866 -0.770371 0
M  V30 END ATOM
M  V30 BEGIN BOND
M  V30 1 1 1 2
M  V30 2 2 2 3
M  V30 3 1 3 4
M  V30 4 2 4 5
M  V30 5 1 5 6
M  V30 6 1 6 7
M  V30 7 2 7 8
M  V30 8 1 8 9
M  V30 9 2 9 10
M  V30 10 1 10 11
M  V30 11 2 11 12
M  V30 12 1 11 13
M  V30 13 1 13 14
M  V30 14 1 14 15
M  V30 15 2 15 16
M  V30 16 1 16 17
M  V30 17 2 17 18
M  V30 18 1 18 19
M  V30 19 2 19 20
M  V30 20 1 10 21
M  V30 21 2 21 22
M  V30 22 1 5 23
M  V30 23 2 23 24
M  V30 24 1 24 2
M  V30 25 1 22 7
M  V30 26 1 20 15
M  V30 27 1 1 25
M  V30 28 1 1 26
M  V30 29 1 1 27
M  V30 30 1 3 28
M  V30 31 1 4 29
M  V30 32 1 8 30
M  V30 33 1 9 31
M  V30 34 1 13 32
M  V30 35 1 14 33
M  V30 36 1 14 34
M  V30 37 1 16 35
M  V30 38 1 17 36
M  V30 39 1 19 37
M  V30 40 1 20 38
M  V30 41 1 21 39
M  V30 42 1 22 40
M  V30 43 1 23 41
M  V30 44 1 24 42
M  V30 END BOND
M  V30 END CTAB
M  END
>  <Dataset>  (593) 
ChEMBL_Kinases

>  <Ligand_Instance>  (593) 
nan

>  <PDB_ID>  (593) 
nan

>  <Standardized_SMILES>  (593) 
Cc1ccc(Oc2ccc(C(=O)NCc3ccncc3)cc2)cc1

>  <Name>  (593) 
nan

>  <Pocket>  (593) 
nan

>  <ATP_Site>  (593) 
nan

>  <Peripheral>  (593) 
nan

>  <Num_H_Atoms_ProtBoundConf>  (593) 
nan

>  <Num_Resolved_Atoms>  (593) 
nan

>  <Num_Not_Resolved_Atoms>  (593) 
nan

$$$$
CHEMBL1427500
     RDKit          3D

  0  0  0  0  0  0  0  0  0  0999 V3000
M  V30 BEGIN CTAB
M  V30 COUNTS 34 35 0 0 0
M  V30 BEGIN ATOM
M  V30 1 C -3.115984 -2.245126 2.987868 0
M  V30 2 C -2.236410 -3.452004 3.032670 0
M  V30 3 O -1.956102 -3.945159 1.748802 0
M  V30 4 C -1.290125 -3.152789 0.836051 0
M  V30 5 C -0.821937 -1.843518 1.031011 0
M  V30 6 C -0.173110 -1.237162 -0.049328 0
M  V30 7 C 0.305751 0.121638 0.124932 0
M  V30 8 C 1.457568 0.640139 -0.262110 0
M  V30 9 C 2.389813 -0.208124 -0.943275 0
M  V30 10 N 3.129230 -0.903237 -1.503644 0
M  V30 11 C 1.763856 2.043758 -0.016377 0
M  V30 12 C 3.006811 2.546395 -0.422719 0
M  V30 13 C 3.300874 3.877465 -0.207596 0
M  V30 14 C 2.308076 4.607192 0.407213 0
M  V30 15 C 1.078425 4.155759 0.821153 0
M  V30 16 N 0.847512 2.836384 0.582298 0
M  V30 17 C 0.009927 -1.867872 -1.251706 0
M  V30 18 C -0.458631 -3.170519 -1.436596 0
M  V30 19 C -1.111511 -3.798570 -0.369346 0
M  V30 20 O -1.535157 -5.087153 -0.659793 0
M  V30 21 H -2.700927 -1.397637 3.601605 0
M  V30 22 H -4.124795 -2.452038 3.434948 0
M  V30 23 H -3.318863 -1.849808 1.987662 0
M  V30 24 H -1.247175 -3.146151 3.459481 0
M  V30 25 H -2.636960 -4.242507 3.707921 0
M  V30 26 H -0.985524 -1.404374 1.984694 0
M  V30 27 H -0.375034 0.796148 0.641196 0
M  V30 28 H 3.728326 1.886671 -0.901495 0
M  V30 29 H 4.232552 4.317653 -0.494701 0
M  V30 30 H 2.522855 5.670462 0.586585 0
M  V30 31 H 0.318500 4.747754 1.299363 0
M  V30 32 H 0.499595 -1.420484 -2.105099 0
M  V30 33 H -0.304176 -3.653708 -2.391299 0
M  V30 34 H -2.508855 -5.312964 -0.802123 0
M  V30 END ATOM
M  V30 BEGIN BOND
M  V30 1 1 1 2
M  V30 2 1 2 3
M  V30 3 1 3 4
M  V30 4 2 4 5
M  V30 5 1 5 6
M  V30 6 1 6 7
M  V30 7 2 7 8
M  V30 8 1 8 9
M  V30 9 3 9 10
M  V30 10 1 8 11
M  V30 11 2 11 12
M  V30 12 1 12 13
M  V30 13 2 13 14
M  V30 14 1 14 15
M  V30 15 2 15 16
M  V30 16 2 6 17
M  V30 17 1 17 18
M  V30 18 2 18 19
M  V30 19 1 19 20
M  V30 20 1 19 4
M  V30 21 1 16 11
M  V30 22 1 1 21
M  V30 23 1 1 22
M  V30 24 1 1 23
M  V30 25 1 2 24
M  V30 26 1 2 25
M  V30 27 1 5 26
M  V30 28 1 7 27
M  V30 29 1 12 28
M  V30 30 1 13 29
M  V30 31 1 14 30
M  V30 32 1 15 31
M  V30 33 1 17 32
M  V30 34 1 18 33
M  V30 35 1 20 34
M  V30 END BOND
M  V30 END CTAB
M  END
>  <Dataset>  (594) 
ChEMBL_Kinases

>  <Ligand_Instance>  (594) 
nan

>  <PDB_ID>  (594) 
nan

>  <Standardized_SMILES>  (594) 
CCOc1cc(/C=C(\C#N)c2ccccn2)ccc1O

>  <Name>  (594) 
nan

>  <Pocket>  (594) 
nan

>  <ATP_Site>  (594) 
nan

>  <Peripheral>  (594) 
nan

>  <Num_H_Atoms_ProtBoundConf>  (594) 
nan

>  <Num_Resolved_Atoms>  (594) 
nan

>  <Num_Not_Resolved_Atoms>  (594) 
nan

$$$$
CHEMBL1428238
     RDKit          3D

  0  0  0  0  0  0  0  0  0  0999 V3000
M  V30 BEGIN CTAB
M  V30 COUNTS 40 41 0 0 0
M  V30 BEGIN ATOM
M  V30 1 C 0.050303 -3.153249 3.170384 0
M  V30 2 O 1.238961 -2.421069 3.093054 0
M  V30 3 C 1.826716 -2.065157 1.900550 0
M  V30 4 C 2.995806 -1.344865 2.008912 0
M  V30 5 C 3.642304 -0.952784 0.854914 0
M  V30 6 C 3.108577 -1.287705 -0.373077 0
M  V30 7 N 3.601148 -0.999299 -1.675315 0
M  V30 8 C 2.995953 0.214440 -2.016555 0
M  V30 9 S 2.889416 1.058784 -3.610059 0
M  V30 10 N 2.339416 1.237704 -1.665915 0
M  V30 11 N 1.883860 1.525400 -0.385006 0
M  V30 12 C 0.499937 1.613112 -0.041711 0
M  V30 13 O -0.230198 1.393596 -1.062895 0
M  V30 14 C 0.184531 1.925281 1.354776 0
M  V30 15 O -1.198897 1.993155 1.596970 0
M  V30 16 C -2.109972 0.976401 1.412838 0
M  V30 17 C -1.957790 -0.302866 0.975847 0
M  V30 18 C -3.023300 -1.169383 0.864900 0
M  V30 19 C -4.276968 -0.725238 1.207238 0
M  V30 20 Cl -5.556726 -1.915130 1.026259 0
M  V30 21 C -4.495964 0.570681 1.660601 0
M  V30 22 C -3.392216 1.422088 1.760379 0
M  V30 23 Cl -3.804239 3.035849 2.347137 0
M  V30 24 C 1.916000 -2.022041 -0.437018 0
M  V30 25 C 1.248997 -2.426992 0.691361 0
M  V30 26 H -0.715090 -2.854596 2.404495 0
M  V30 27 H 0.188593 -4.253410 3.147375 0
M  V30 28 H -0.438725 -2.930527 4.164041 0
M  V30 29 H 3.449697 -1.060380 2.939793 0
M  V30 30 H 4.564568 -0.385369 0.781593 0
M  V30 31 H 4.216871 -1.334922 -2.442271 0
M  V30 32 H 2.215819 0.145202 -4.476407 0
M  V30 33 H 2.618359 1.684823 0.340030 0
M  V30 34 H 0.596969 2.933277 1.655733 0
M  V30 35 H 0.652856 1.211534 2.082261 0
M  V30 36 H -0.955656 -0.551715 0.735667 0
M  V30 37 H -2.809155 -2.166177 0.508080 0
M  V30 38 H -5.502182 0.860764 1.914102 0
M  V30 39 H 1.416296 -2.334260 -1.368529 0
M  V30 40 H 0.328604 -2.993401 0.661297 0
M  V30 END ATOM
M  V30 BEGIN BOND
M  V30 1 1 1 2
M  V30 2 1 2 3
M  V30 3 2 3 4
M  V30 4 1 4 5
M  V30 5 2 5 6
M  V30 6 1 6 7
M  V30 7 1 7 8
M  V30 8 1 8 9
M  V30 9 2 8 10 CFG=2
M  V30 10 1 10 11
M  V30 11 1 11 12
M  V30 12 2 12 13
M  V30 13 1 12 14
M  V30 14 1 14 15
M  V30 15 1 15 16
M  V30 16 2 16 17
M  V30 17 1 17 18
M  V30 18 2 18 19
M  V30 19 1 19 20
M  V30 20 1 19 21
M  V30 21 2 21 22
M  V30 22 1 22 23
M  V30 23 1 6 24
M  V30 24 2 24 25
M  V30 25 1 25 3
M  V30 26 1 22 16
M  V30 27 1 1 26
M  V30 28 1 1 27
M  V30 29 1 1 28
M  V30 30 1 4 29
M  V30 31 1 5 30
M  V30 32 1 7 31
M  V30 33 1 9 32
M  V30 34 1 11 33
M  V30 35 1 14 34
M  V30 36 1 14 35
M  V30 37 1 17 36
M  V30 38 1 18 37
M  V30 39 1 21 38
M  V30 40 1 24 39
M  V30 41 1 25 40
M  V30 END BOND
M  V30 END CTAB
M  END
>  <Dataset>  (595) 
ChEMBL_Kinases

>  <Ligand_Instance>  (595) 
nan

>  <PDB_ID>  (595) 
nan

>  <Standardized_SMILES>  (595) 
COc1ccc(NC(S)=NNC(=O)COc2ccc(Cl)cc2Cl)cc1

>  <Name>  (595) 
nan

>  <Pocket>  (595) 
nan

>  <ATP_Site>  (595) 
nan

>  <Peripheral>  (595) 
nan

>  <Num_H_Atoms_ProtBoundConf>  (595) 
nan

>  <Num_Resolved_Atoms>  (595) 
nan

>  <Num_Not_Resolved_Atoms>  (595) 
nan

$$$$
CHEMBL142764
     RDKit          3D

  0  0  0  0  0  0  0  0  0  0999 V3000
M  V30 BEGIN CTAB
M  V30 COUNTS 14 14 0 0 0
M  V30 BEGIN ATOM
M  V30 1 O 1.483727 -1.313049 2.990916 0
M  V30 2 C 1.161123 -1.120777 1.749829 0
M  V30 3 C 0.498293 -2.435768 1.582055 0
M  V30 4 Cl -0.084070 -2.560546 -0.112288 0
M  V30 5 C 1.110917 -0.284936 0.435938 0
M  V30 6 C 1.831263 0.747329 1.156214 0
M  V30 7 C 2.330309 2.028922 0.866477 0
M  V30 8 C 1.917376 2.156873 -0.548644 0
M  V30 9 Br 1.793764 3.167665 -2.327745 0
M  V30 10 S 1.052784 0.683269 -1.085953 0
M  V30 11 H 1.151127 -3.306756 1.790184 0
M  V30 12 H -0.437189 -2.429785 2.217204 0
M  V30 13 H 2.309806 1.063875 2.149635 0
M  V30 14 H 2.708625 3.002941 0.643369 0
M  V30 END ATOM
M  V30 BEGIN BOND
M  V30 1 2 1 2
M  V30 2 1 2 3
M  V30 3 1 3 4
M  V30 4 1 2 5
M  V30 5 2 5 6
M  V30 6 1 6 7
M  V30 7 2 7 8
M  V30 8 1 8 9
M  V30 9 1 8 10
M  V30 10 1 10 5
M  V30 11 1 3 11
M  V30 12 1 3 12
M  V30 13 1 6 13
M  V30 14 1 7 14
M  V30 END BOND
M  V30 END CTAB
M  END
>  <Dataset>  (596) 
ChEMBL_Kinases

>  <Ligand_Instance>  (596) 
nan

>  <PDB_ID>  (596) 
nan

>  <Standardized_SMILES>  (596) 
O=C(CCl)c1ccc(Br)s1

>  <Name>  (596) 
nan

>  <Pocket>  (596) 
nan

>  <ATP_Site>  (596) 
nan

>  <Peripheral>  (596) 
nan

>  <Num_H_Atoms_ProtBoundConf>  (596) 
nan

>  <Num_Resolved_Atoms>  (596) 
nan

>  <Num_Not_Resolved_Atoms>  (596) 
nan

$$$$
CHEMBL1427864
     RDKit          3D

  0  0  0  0  0  0  0  0  0  0999 V3000
M  V30 BEGIN CTAB
M  V30 COUNTS 35 37 0 0 0
M  V30 BEGIN ATOM
M  V30 1 C -1.390986 -2.414211 4.831569 0
M  V30 2 C -1.006204 -1.987515 3.461576 0
M  V30 3 C 0.309182 -1.994275 3.008721 0
M  V30 4 C 0.209266 -1.533047 1.713405 0
M  V30 5 C 1.205409 -1.290750 0.656343 0
M  V30 6 C 1.051424 -2.250856 -0.470571 0
M  V30 7 O 0.315863 -3.234311 -0.299604 0
M  V30 8 C 1.758171 -2.020131 -1.736008 0
M  V30 9 C 1.856621 -0.556232 -2.051838 0
M  V30 10 O 1.614515 0.080175 -3.087754 0
M  V30 11 C 2.333134 0.230698 -0.886308 0
M  V30 12 C 1.355404 0.125458 0.259166 0
M  V30 13 C 0.132402 0.852987 -0.099154 0
M  V30 14 C -0.128584 2.043263 0.594254 0
M  V30 15 C -1.270763 2.806997 0.324661 0
M  V30 16 C -2.182967 2.392589 -0.652076 0
M  V30 17 C -1.923367 1.216231 -1.336113 0
M  V30 18 C -0.790149 0.507195 -1.032387 0
M  V30 19 O -1.055909 -1.286933 1.457412 0
M  V30 20 N -1.812311 -1.548557 2.484144 0
M  V30 21 H -0.666728 -2.057839 5.581481 0
M  V30 22 H -1.526740 -3.515331 4.836287 0
M  V30 23 H -2.401284 -1.982422 5.053982 0
M  V30 24 H 1.233948 -2.265012 3.457965 0
M  V30 25 H 2.192732 -1.578258 1.128868 0
M  V30 26 H 1.249263 -2.533835 -2.603589 0
M  V30 27 H 2.760986 -2.484034 -1.678579 0
M  V30 28 H 2.557800 1.285681 -1.151248 0
M  V30 29 H 3.309208 -0.222764 -0.557935 0
M  V30 30 H 1.844237 0.692536 1.105124 0
M  V30 31 H 0.517089 2.456409 1.374707 0
M  V30 32 H -1.464643 3.707820 0.852113 0
M  V30 33 H -3.050225 2.990852 -0.843174 0
M  V30 34 H -2.611990 0.886841 -2.085748 0
M  V30 35 H -0.629644 -0.390874 -1.580402 0
M  V30 END ATOM
M  V30 BEGIN BOND
M  V30 1 1 1 2
M  V30 2 1 2 3
M  V30 3 2 3 4
M  V30 4 1 4 5
M  V30 5 1 5 6
M  V30 6 2 6 7
M  V30 7 1 6 8
M  V30 8 1 8 9
M  V30 9 2 9 10
M  V30 10 1 9 11
M  V30 11 1 11 12
M  V30 12 1 12 13
M  V30 13 2 13 14
M  V30 14 1 14 15
M  V30 15 2 15 16
M  V30 16 1 16 17
M  V30 17 2 17 18
M  V30 18 1 4 19
M  V30 19 1 19 20
M  V30 20 2 20 2
M  V30 21 1 12 5
M  V30 22 1 18 13
M  V30 23 1 1 21
M  V30 24 1 1 22
M  V30 25 1 1 23
M  V30 26 1 3 24
M  V30 27 1 5 25
M  V30 28 1 8 26
M  V30 29 1 8 27
M  V30 30 1 11 28
M  V30 31 1 11 29
M  V30 32 1 12 30
M  V30 33 1 14 31
M  V30 34 1 15 32
M  V30 35 1 16 33
M  V30 36 1 17 34
M  V30 37 1 18 35
M  V30 END BOND
M  V30 END CTAB
M  END
>  <Dataset>  (597) 
ChEMBL_Kinases

>  <Ligand_Instance>  (597) 
nan

>  <PDB_ID>  (597) 
nan

>  <Standardized_SMILES>  (597) 
Cc1cc(C2C(=O)CC(=O)CC2c2ccccc2)on1

>  <Name>  (597) 
nan

>  <Pocket>  (597) 
nan

>  <ATP_Site>  (597) 
nan

>  <Peripheral>  (597) 
nan

>  <Num_H_Atoms_ProtBoundConf>  (597) 
nan

>  <Num_Resolved_Atoms>  (597) 
nan

>  <Num_Not_Resolved_Atoms>  (597) 
nan

$$$$
CHEMBL1427908
     RDKit          3D

  0  0  0  0  0  0  0  0  0  0999 V3000
M  V30 BEGIN CTAB
M  V30 COUNTS 40 42 0 0 0
M  V30 BEGIN ATOM
M  V30 1 C -0.498397 -6.190064 2.199797 0
M  V30 2 C 0.661967 -5.378131 2.776033 0
M  V30 3 N 0.447558 -3.947932 2.521302 0
M  V30 4 C 0.857842 -3.171342 1.401995 0
M  V30 5 O 1.498123 -3.731170 0.481359 0
M  V30 6 C 0.424351 -1.793474 1.561982 0
M  V30 7 C 0.622156 -0.794599 0.735148 0
M  V30 8 C 1.360276 -1.049086 -0.501708 0
M  V30 9 C 1.605361 -0.049128 -1.366080 0
M  V30 10 C 1.141885 1.304801 -1.091487 0
M  V30 11 C 1.428221 2.277464 -2.022956 0
M  V30 12 C 1.003181 3.590479 -1.804283 0
M  V30 13 C 1.349944 4.564606 -2.858967 0
M  V30 14 C 0.310497 3.818075 -0.641072 0
M  V30 15 C 0.048151 2.831876 0.253554 0
M  V30 16 C 0.449823 1.506365 0.082851 0
M  V30 17 N 0.137143 0.526184 1.061190 0
M  V30 18 C -0.624097 0.786638 2.246493 0
M  V30 19 C -2.028350 0.251924 2.227875 0
M  V30 20 O -0.227844 -1.749825 2.747504 0
M  V30 21 C -0.236505 -2.985895 3.338259 0
M  V30 22 S -0.940240 -3.288768 4.779972 0
M  V30 23 H -0.145388 -6.962895 1.503182 0
M  V30 24 H -1.122058 -6.615204 2.999215 0
M  V30 25 H -1.157666 -5.463583 1.646019 0
M  V30 26 H 0.774791 -5.528578 3.865813 0
M  V30 27 H 1.611549 -5.689132 2.308166 0
M  V30 28 H 1.759548 -1.981739 -0.835735 0
M  V30 29 H 2.158269 -0.235717 -2.298178 0
M  V30 30 H 1.979119 2.033233 -2.923569 0
M  V30 31 H 1.066999 4.107571 -3.831199 0
M  V30 32 H 2.398278 4.855797 -2.800093 0
M  V30 33 H 0.683994 5.450382 -2.698187 0
M  V30 34 H 0.011369 4.856273 -0.535468 0
M  V30 35 H -0.496885 3.160391 1.094578 0
M  V30 36 H -0.698115 1.871559 2.375843 0
M  V30 37 H -0.077558 0.516345 3.187618 0
M  V30 38 H -2.768175 1.078447 1.974345 0
M  V30 39 H -2.410688 -0.166507 3.147148 0
M  V30 40 H -2.154949 -0.464089 1.397568 0
M  V30 END ATOM
M  V30 BEGIN BOND
M  V30 1 1 1 2
M  V30 2 1 2 3
M  V30 3 1 3 4
M  V30 4 2 4 5
M  V30 5 1 4 6
M  V30 6 2 6 7
M  V30 7 1 7 8
M  V30 8 2 8 9
M  V30 9 1 9 10
M  V30 10 2 10 11
M  V30 11 1 11 12
M  V30 12 1 12 13
M  V30 13 2 12 14
M  V30 14 1 14 15
M  V30 15 2 15 16
M  V30 16 1 16 17
M  V30 17 1 17 18
M  V30 18 1 18 19
M  V30 19 1 6 20
M  V30 20 1 20 21
M  V30 21 2 21 22
M  V30 22 1 21 3
M  V30 23 1 17 7
M  V30 24 1 16 10
M  V30 25 1 1 23
M  V30 26 1 1 24
M  V30 27 1 1 25
M  V30 28 1 2 26
M  V30 29 1 2 27
M  V30 30 1 8 28
M  V30 31 1 9 29
M  V30 32 1 11 30
M  V30 33 1 13 31
M  V30 34 1 13 32
M  V30 35 1 13 33
M  V30 36 1 14 34
M  V30 37 1 15 35
M  V30 38 1 18 36
M  V30 39 1 18 37
M  V30 40 1 19 38
M  V30 41 1 19 39
M  V30 42 1 19 40
M  V30 END BOND
M  V30 END CTAB
M  END
>  <Dataset>  (598) 
ChEMBL_Kinases

>  <Ligand_Instance>  (598) 
nan

>  <PDB_ID>  (598) 
nan

>  <Standardized_SMILES>  (598) 
CCN1C(=O)/C(=C2\C=Cc3cc(C)ccc3N2CC)OC1=S

>  <Name>  (598) 
nan

>  <Pocket>  (598) 
nan

>  <ATP_Site>  (598) 
nan

>  <Peripheral>  (598) 
nan

>  <Num_H_Atoms_ProtBoundConf>  (598) 
nan

>  <Num_Resolved_Atoms>  (598) 
nan

>  <Num_Not_Resolved_Atoms>  (598) 
nan

$$$$
CHEMBL1427910
     RDKit          3D

  0  0  0  0  0  0  0  0  0  0999 V3000
M  V30 BEGIN CTAB
M  V30 COUNTS 38 40 0 0 0
M  V30 BEGIN ATOM
M  V30 1 C 0.459908 -5.265984 4.870133 0
M  V30 2 O 1.678599 -4.575183 4.631707 0
M  V30 3 C 1.854051 -4.009723 3.378376 0
M  V30 4 C 0.858758 -4.131779 2.416503 0
M  V30 5 C 1.042152 -3.561716 1.161405 0
M  V30 6 C 2.200044 -2.864962 0.829281 0
M  V30 7 C 2.344649 -2.270778 -0.538335 0
M  V30 8 C 1.781656 -0.888083 -0.435685 0
M  V30 9 O 1.626620 -1.317052 0.737143 0
M  V30 10 N 1.704538 0.059652 -1.493493 0
M  V30 11 C 1.111177 1.327010 -1.116576 0
M  V30 12 N -0.116821 1.642432 -1.167786 0
M  V30 13 C -0.499040 2.852657 -0.783094 0
M  V30 14 C -1.914112 3.199916 -0.847862 0
M  V30 15 C -2.392848 4.434000 -0.467539 0
M  V30 16 C -3.724931 4.784067 -0.520133 0
M  V30 17 N -4.632628 3.907705 -0.957575 0
M  V30 18 C -4.251337 2.660119 -1.355833 0
M  V30 19 C -2.912142 2.357159 -1.285325 0
M  V30 20 C 0.486919 3.777979 -0.317374 0
M  V30 21 S 2.024658 2.679993 -0.506506 0
M  V30 22 C 3.170935 -2.761253 1.807702 0
M  V30 23 C 3.000840 -3.322170 3.056006 0
M  V30 24 H -0.418151 -4.577676 4.735543 0
M  V30 25 H 0.452930 -5.698543 5.900942 0
M  V30 26 H 0.346040 -6.059018 4.102836 0
M  V30 27 H -0.067484 -4.659392 2.604279 0
M  V30 28 H 0.269240 -3.651746 0.401987 0
M  V30 29 H 1.770664 -2.921626 -1.220298 0
M  V30 30 H 3.400161 -2.290409 -0.842732 0
M  V30 31 H 2.092357 -0.310848 -2.387033 0
M  V30 32 H -1.748435 5.206311 -0.102896 0
M  V30 33 H -4.079455 5.747933 -0.220497 0
M  V30 34 H -4.934616 1.902443 -1.720410 0
M  V30 35 H -2.599420 1.349270 -1.606446 0
M  V30 36 H 0.224691 4.848653 0.033155 0
M  V30 37 H 4.068674 -2.213294 1.529941 0
M  V30 38 H 3.795878 -3.207197 3.778670 0
M  V30 END ATOM
M  V30 BEGIN BOND
M  V30 1 1 1 2
M  V30 2 1 2 3
M  V30 3 2 3 4
M  V30 4 1 4 5
M  V30 5 2 5 6
M  V30 6 1 6 7
M  V30 7 1 7 8
M  V30 8 2 8 9
M  V30 9 1 8 10
M  V30 10 1 10 11
M  V30 11 2 11 12
M  V30 12 1 12 13
M  V30 13 1 13 14
M  V30 14 2 14 15
M  V30 15 1 15 16
M  V30 16 2 16 17
M  V30 17 1 17 18
M  V30 18 2 18 19
M  V30 19 2 13 20
M  V30 20 1 20 21
M  V30 21 1 6 22
M  V30 22 2 22 23
M  V30 23 1 23 3
M  V30 24 1 21 11
M  V30 25 1 19 14
M  V30 26 1 1 24
M  V30 27 1 1 25
M  V30 28 1 1 26
M  V30 29 1 4 27
M  V30 30 1 5 28
M  V30 31 1 7 29
M  V30 32 1 7 30
M  V30 33 1 10 31
M  V30 34 1 15 32
M  V30 35 1 16 33
M  V30 36 1 18 34
M  V30 37 1 19 35
M  V30 38 1 20 36
M  V30 39 1 22 37
M  V30 40 1 23 38
M  V30 END BOND
M  V30 END CTAB
M  END
>  <Dataset>  (599) 
ChEMBL_Kinases

>  <Ligand_Instance>  (599) 
nan

>  <PDB_ID>  (599) 
nan

>  <Standardized_SMILES>  (599) 
COc1ccc(CC(=O)Nc2nc(-c3ccncc3)cs2)cc1

>  <Name>  (599) 
nan

>  <Pocket>  (599) 
nan

>  <ATP_Site>  (599) 
nan

>  <Peripheral>  (599) 
nan

>  <Num_H_Atoms_ProtBoundConf>  (599) 
nan

>  <Num_Resolved_Atoms>  (599) 
nan

>  <Num_Not_Resolved_Atoms>  (599) 
nan

$$$$
CHEMBL1427931
     RDKit          3D

  0  0  0  0  0  0  0  0  0  0999 V3000
M  V30 BEGIN CTAB
M  V30 COUNTS 60 64 0 0 0
M  V30 BEGIN ATOM
M  V30 1 O -0.338377 -0.404694 1.860062 0
M  V30 2 C -0.908711 -1.461241 1.532934 0
M  V30 3 O -0.693513 -2.127244 2.702293 0
M  V30 4 C -0.026236 -1.660188 3.839845 0
M  V30 5 C 1.376269 -1.285144 3.637430 0
M  V30 6 O 1.820429 -0.903905 4.764954 0
M  V30 7 N 2.484688 -1.145936 2.763875 0
M  V30 8 C 3.686861 -0.655428 3.388040 0
M  V30 9 C 4.374821 0.362411 2.469738 0
M  V30 10 N 3.414883 0.935672 1.562829 0
M  V30 11 C 3.177009 2.329366 1.698864 0
M  V30 12 O 3.884941 2.786611 2.621375 0
M  V30 13 C 2.313995 3.260502 1.003191 0
M  V30 14 C 1.361177 3.894441 1.808959 0
M  V30 15 C 0.616326 4.750650 0.999387 0
M  V30 16 C 1.167000 4.583287 -0.260812 0
M  V30 17 O 2.149698 3.710413 -0.217495 0
M  V30 18 C 2.862563 -0.064280 0.658090 0
M  V30 19 C 2.708690 -1.386403 1.340039 0
M  V30 20 C -1.613708 -2.014077 0.388092 0
M  V30 21 C -2.122027 -3.287189 0.404549 0
M  V30 22 N -2.676810 -3.413650 -0.809510 0
M  V30 23 C -3.351789 -4.602329 -1.273465 0
M  V30 24 C -4.019353 -5.362193 -0.306347 0
M  V30 25 C -4.688742 -6.523084 -0.710089 0
M  V30 26 C -4.681433 -6.894167 -2.025773 0
M  V30 27 C -4.013566 -6.125483 -2.963146 0
M  V30 28 C -3.339882 -4.970240 -2.602751 0
M  V30 29 N -2.533015 -2.329424 -1.520519 0
M  V30 30 C -1.855205 -1.382299 -0.809811 0
M  V30 31 C -1.497431 -0.046074 -1.260919 0
M  V30 32 C -1.630403 1.160587 -0.610469 0
M  V30 33 C -1.204451 2.302584 -1.259903 0
M  V30 34 C -0.658589 2.267260 -2.521615 0
M  V30 35 C -0.520005 1.067726 -3.183389 0
M  V30 36 C -0.940719 -0.072182 -2.545351 0
M  V30 37 H -0.074096 -2.468173 4.617630 0
M  V30 38 H -0.613611 -0.801214 4.283795 0
M  V30 39 H 3.520006 -0.148178 4.358601 0
M  V30 40 H 4.412604 -1.491382 3.596357 0
M  V30 41 H 5.105746 -0.242729 1.861308 0
M  V30 42 H 4.887683 1.106776 3.077350 0
M  V30 43 H 1.095820 3.860732 2.872881 0
M  V30 44 H -0.216946 5.426578 1.219186 0
M  V30 45 H 0.871510 5.072806 -1.179569 0
M  V30 46 H 1.849818 0.284856 0.351019 0
M  V30 47 H 3.517148 -0.143482 -0.257529 0
M  V30 48 H 1.875010 -1.955804 0.889500 0
M  V30 49 H 3.632927 -1.974381 1.200363 0
M  V30 50 H -2.086953 -4.015082 1.198767 0
M  V30 51 H -4.021983 -5.058757 0.748730 0
M  V30 52 H -5.192551 -7.080795 0.073484 0
M  V30 53 H -5.216629 -7.806945 -2.298435 0
M  V30 54 H -4.024714 -6.444512 -3.998392 0
M  V30 55 H -2.807104 -4.346418 -3.314711 0
M  V30 56 H -2.072500 1.080920 0.370724 0
M  V30 57 H -1.350176 3.203778 -0.667082 0
M  V30 58 H -0.344320 3.198244 -2.975420 0
M  V30 59 H -0.087369 1.080854 -4.171819 0
M  V30 60 H -0.788030 -0.977311 -3.155048 0
M  V30 END ATOM
M  V30 BEGIN BOND
M  V30 1 2 1 2
M  V30 2 1 2 3
M  V30 3 1 3 4
M  V30 4 1 4 5
M  V30 5 2 5 6
M  V30 6 1 5 7
M  V30 7 1 7 8
M  V30 8 1 8 9
M  V30 9 1 9 10
M  V30 10 1 10 11
M  V30 11 2 11 12
M  V30 12 1 11 13
M  V30 13 2 13 14
M  V30 14 1 14 15
M  V30 15 2 15 16
M  V30 16 1 16 17
M  V30 17 1 10 18
M  V30 18 1 18 19
M  V30 19 1 2 20
M  V30 20 2 20 21
M  V30 21 1 21 22
M  V30 22 1 22 23
M  V30 23 2 23 24
M  V30 24 1 24 25
M  V30 25 2 25 26
M  V30 26 1 26 27
M  V30 27 2 27 28
M  V30 28 1 22 29
M  V30 29 2 29 30
M  V30 30 1 30 31
M  V30 31 2 31 32
M  V30 32 1 32 33
M  V30 33 2 33 34
M  V30 34 1 34 35
M  V30 35 2 35 36
M  V30 36 1 19 7
M  V30 37 1 30 20
M  V30 38 1 36 31
M  V30 39 1 17 13
M  V30 40 1 28 23
M  V30 41 1 4 37
M  V30 42 1 4 38
M  V30 43 1 8 39
M  V30 44 1 8 40
M  V30 45 1 9 41
M  V30 46 1 9 42
M  V30 47 1 14 43
M  V30 48 1 15 44
M  V30 49 1 16 45
M  V30 50 1 18 46
M  V30 51 1 18 47
M  V30 52 1 19 48
M  V30 53 1 19 49
M  V30 54 1 21 50
M  V30 55 1 24 51
M  V30 56 1 25 52
M  V30 57 1 26 53
M  V30 58 1 27 54
M  V30 59 1 28 55
M  V30 60 1 32 56
M  V30 61 1 33 57
M  V30 62 1 34 58
M  V30 63 1 35 59
M  V30 64 1 36 60
M  V30 END BOND
M  V30 END CTAB
M  END
>  <Dataset>  (600) 
ChEMBL_Kinases

>  <Ligand_Instance>  (600) 
nan

>  <PDB_ID>  (600) 
nan

>  <Standardized_SMILES>  (600) 
O=C(OCC(=O)N1CCN(C(=O)c2ccco2)CC1)c1cn(-c2ccccc2)nc1-c1ccccc1

>  <Name>  (600) 
nan

>  <Pocket>  (600) 
nan

>  <ATP_Site>  (600) 
nan

>  <Peripheral>  (600) 
nan

>  <Num_H_Atoms_ProtBoundConf>  (600) 
nan

>  <Num_Resolved_Atoms>  (600) 
nan

>  <Num_Not_Resolved_Atoms>  (600) 
nan

$$$$
CHEMBL1427957
     RDKit          3D

  0  0  0  0  0  0  0  0  0  0999 V3000
M  V30 BEGIN CTAB
M  V30 COUNTS 60 62 0 0 0
M  V30 BEGIN ATOM
M  V30 1 C -1.552365 -2.883178 4.776696 0
M  V30 2 C -0.505335 -3.212132 4.036362 0
M  V30 3 C 0.636367 -3.296828 3.116503 0
M  V30 4 N 0.920871 -2.103017 2.377132 0
M  V30 5 C 1.726123 -0.980760 2.682891 0
M  V30 6 O 1.664303 -1.875109 3.549713 0
M  V30 7 C 2.603238 0.048749 3.229859 0
M  V30 8 N 2.747153 1.164228 2.300286 0
M  V30 9 C 3.270200 1.108885 0.981385 0
M  V30 10 O 3.660814 0.013755 0.525205 0
M  V30 11 C 3.364326 2.298370 0.143227 0
M  V30 12 C 2.975164 3.579993 0.500484 0
M  V30 13 C 3.227107 4.434634 -0.575961 0
M  V30 14 C 3.769097 3.583968 -1.541705 0
M  V30 15 O 3.828493 2.358312 -1.079460 0
M  V30 16 C 0.473137 -1.687973 1.051716 0
M  V30 17 C -0.998908 -1.509585 1.026934 0
M  V30 18 O -2.101509 -1.647391 1.649676 0
M  V30 19 N -1.409446 -0.926458 -0.229826 0
M  V30 20 C -2.745400 -0.601748 -0.630855 0
M  V30 21 C -2.898003 0.888291 -0.954271 0
M  V30 22 C -4.357974 1.197979 -0.949090 0
M  V30 23 C -5.222496 -0.024943 -1.141691 0
M  V30 24 C -4.642154 -1.009826 -2.105467 0
M  V30 25 C -3.186944 -1.310680 -1.902136 0
M  V30 26 C 0.959467 -2.649184 0.022488 0
M  V30 27 C 2.308789 -2.933917 0.275482 0
M  V30 28 C 2.994267 -3.820276 -0.566019 0
M  V30 29 C 2.362101 -4.414205 -1.635229 0
M  V30 30 C 1.048612 -4.113820 -1.850485 0
M  V30 31 C 0.363012 -3.250009 -1.038610 0
M  V30 32 H -1.913192 -1.868038 4.661568 0
M  V30 33 H -1.423460 -1.916942 4.279807 0
M  V30 34 H -0.663386 -4.171492 4.561247 0
M  V30 35 H 1.511205 -3.708873 3.681293 0
M  V30 36 H 0.416240 -4.108023 2.356402 0
M  V30 37 H 3.596640 -0.365289 3.511717 0
M  V30 38 H 2.155703 0.460738 4.149823 0
M  V30 39 H 2.445995 2.146341 2.583495 0
M  V30 40 H 2.550696 3.914473 1.422748 0
M  V30 41 H 3.022639 5.501468 -0.586509 0
M  V30 42 H 4.065821 3.978601 -2.502223 0
M  V30 43 H 0.934593 -0.707194 0.830751 0
M  V30 44 H -0.880642 -0.613599 -1.098189 0
M  V30 45 H -3.481590 -0.840355 0.137094 0
M  V30 46 H -2.421387 1.093873 -1.955316 0
M  V30 47 H -2.293429 1.431877 -0.215926 0
M  V30 48 H -4.596472 1.937528 -1.737489 0
M  V30 49 H -4.610463 1.591475 0.058239 0
M  V30 50 H -6.184269 0.324504 -1.584455 0
M  V30 51 H -5.501787 -0.491118 -0.167378 0
M  V30 52 H -5.197359 -1.975541 -1.931915 0
M  V30 53 H -4.883489 -0.748656 -3.155792 0
M  V30 54 H -2.572902 -0.999217 -2.791043 0
M  V30 55 H -2.976210 -2.382533 -1.770916 0
M  V30 56 H 2.947461 -2.565761 1.058388 0
M  V30 57 H 4.033799 -4.089940 -0.438027 0
M  V30 58 H 2.808948 -5.106694 -2.334473 0
M  V30 59 H 0.441836 -4.516566 -2.659006 0
M  V30 60 H -0.656972 -2.976133 -1.144280 0
M  V30 END ATOM
M  V30 BEGIN BOND
M  V30 1 2 1 2
M  V30 2 1 2 3
M  V30 3 1 3 4
M  V30 4 1 4 5
M  V30 5 2 5 6
M  V30 6 1 5 7
M  V30 7 1 7 8
M  V30 8 1 8 9
M  V30 9 2 9 10
M  V30 10 1 9 11
M  V30 11 2 11 12
M  V30 12 1 12 13
M  V30 13 2 13 14
M  V30 14 1 14 15
M  V30 15 1 4 16
M  V30 16 1 16 17
M  V30 17 2 17 18
M  V30 18 1 17 19
M  V30 19 1 19 20
M  V30 20 1 20 21
M  V30 21 1 21 22
M  V30 22 1 22 23
M  V30 23 1 23 24
M  V30 24 1 24 25
M  V30 25 1 16 26
M  V30 26 2 26 27
M  V30 27 1 27 28
M  V30 28 2 28 29
M  V30 29 1 29 30
M  V30 30 2 30 31
M  V30 31 1 15 11
M  V30 32 1 25 20
M  V30 33 1 31 26
M  V30 34 1 1 32
M  V30 35 1 1 33
M  V30 36 1 2 34
M  V30 37 1 3 35
M  V30 38 1 3 36
M  V30 39 1 7 37
M  V30 40 1 7 38
M  V30 41 1 8 39
M  V30 42 1 12 40
M  V30 43 1 13 41
M  V30 44 1 14 42
M  V30 45 1 16 43
M  V30 46 1 19 44
M  V30 47 1 20 45
M  V30 48 1 21 46
M  V30 49 1 21 47
M  V30 50 1 22 48
M  V30 51 1 22 49
M  V30 52 1 23 50
M  V30 53 1 23 51
M  V30 54 1 24 52
M  V30 55 1 24 53
M  V30 56 1 25 54
M  V30 57 1 25 55
M  V30 58 1 27 56
M  V30 59 1 28 57
M  V30 60 1 29 58
M  V30 61 1 30 59
M  V30 62 1 31 60
M  V30 END BOND
M  V30 END CTAB
M  END
>  <Dataset>  (601) 
ChEMBL_Kinases

>  <Ligand_Instance>  (601) 
nan

>  <PDB_ID>  (601) 
nan

>  <Standardized_SMILES>  (601) 
C=CCN(C(=O)CNC(=O)c1ccco1)C(C(=O)NC1CCCCC1)c1ccccc1

>  <Name>  (601) 
nan

>  <Pocket>  (601) 
nan

>  <ATP_Site>  (601) 
nan

>  <Peripheral>  (601) 
nan

>  <Num_H_Atoms_ProtBoundConf>  (601) 
nan

>  <Num_Resolved_Atoms>  (601) 
nan

>  <Num_Not_Resolved_Atoms>  (601) 
nan

$$$$
CHEMBL1428001
     RDKit          3D

  0  0  0  0  0  0  0  0  0  0999 V3000
M  V30 BEGIN CTAB
M  V30 COUNTS 53 57 0 0 0
M  V30 BEGIN ATOM
M  V30 1 C -7.757184 -2.017950 -2.170084 0
M  V30 2 N -6.740090 -2.944026 -1.652509 0
M  V30 3 C -6.846941 -4.350823 -1.993752 0
M  V30 4 C -5.666810 -2.504144 -0.836068 0
M  V30 5 C -4.718465 -3.421300 -0.363745 0
M  V30 6 C -3.665266 -2.980763 0.439119 0
M  V30 7 C -3.580734 -1.635430 0.753434 0
M  V30 8 N -2.529258 -1.081582 1.576741 0
M  V30 9 C -1.463099 -0.705407 0.725511 0
M  V30 10 O -1.721596 -0.953736 -0.496943 0
M  V30 11 C -0.203863 -0.097248 1.210247 0
M  V30 12 C 0.073777 0.170447 2.531233 0
M  V30 13 C 1.300175 0.744690 2.839152 0
M  V30 14 C 2.199897 1.030629 1.835132 0
M  V30 15 C 1.943285 0.770792 0.501352 0
M  V30 16 N 2.829629 1.045003 -0.555765 0
M  V30 17 C 3.836299 0.235657 -1.129456 0
M  V30 18 O 4.406567 -0.706894 -0.554363 0
M  V30 19 C 4.073853 0.717952 -2.516751 0
M  V30 20 C 5.552232 0.942337 -2.661078 0
M  V30 21 C 6.005716 1.670399 -1.439701 0
M  V30 22 C 5.451579 2.896738 -1.463914 0
M  V30 23 C 4.657917 2.985795 -2.719933 0
M  V30 24 C 5.531203 2.133495 -3.633442 0
M  V30 25 C 3.456122 2.103017 -2.575861 0
M  V30 26 C 2.831014 2.299522 -1.258941 0
M  V30 27 O 2.407570 3.435007 -0.926185 0
M  V30 28 C 0.712947 0.194673 0.192168 0
M  V30 29 C -4.496447 -0.698663 0.307125 0
M  V30 30 C -5.542962 -1.170748 -0.497196 0
M  V30 31 H -8.454303 -1.716974 -1.389086 0
M  V30 32 H -8.214411 -2.419885 -3.094619 0
M  V30 33 H -7.187898 -1.114853 -2.500166 0
M  V30 34 H -7.613620 -4.515949 -2.761718 0
M  V30 35 H -7.009304 -4.992985 -1.101172 0
M  V30 36 H -5.835735 -4.644406 -2.367460 0
M  V30 37 H -4.785161 -4.475368 -0.610329 0
M  V30 38 H -2.915204 -3.651844 0.823052 0
M  V30 39 H -2.425331 -0.921156 2.619233 0
M  V30 40 H -0.679990 -0.081295 3.261613 0
M  V30 41 H 1.517907 0.953949 3.868962 0
M  V30 42 H 3.155561 1.480434 2.096261 0
M  V30 43 H 3.655138 0.036784 -3.276374 0
M  V30 44 H 6.157646 0.119819 -2.964472 0
M  V30 45 H 6.636595 1.517209 -0.549650 0
M  V30 46 H 5.472969 3.767748 -0.790291 0
M  V30 47 H 4.476194 3.990137 -3.087389 0
M  V30 48 H 6.529338 2.553082 -3.784416 0
M  V30 49 H 4.982870 1.880739 -4.563152 0
M  V30 50 H 2.737602 2.196739 -3.415938 0
M  V30 51 H 0.490783 -0.019309 -0.862845 0
M  V30 52 H -4.439007 0.356445 0.547593 0
M  V30 53 H -6.246933 -0.411043 -0.832753 0
M  V30 END ATOM
M  V30 BEGIN BOND
M  V30 1 1 1 2
M  V30 2 1 2 3
M  V30 3 1 2 4
M  V30 4 2 4 5
M  V30 5 1 5 6
M  V30 6 2 6 7
M  V30 7 1 7 8
M  V30 8 1 8 9
M  V30 9 2 9 10
M  V30 10 1 9 11
M  V30 11 2 11 12
M  V30 12 1 12 13
M  V30 13 2 13 14
M  V30 14 1 14 15
M  V30 15 1 15 16
M  V30 16 1 16 17
M  V30 17 2 17 18
M  V30 18 1 17 19
M  V30 19 1 19 20
M  V30 20 1 20 21
M  V30 21 2 21 22
M  V30 22 1 22 23
M  V30 23 1 23 24
M  V30 24 1 23 25
M  V30 25 1 25 26
M  V30 26 2 26 27
M  V30 27 2 15 28
M  V30 28 1 7 29
M  V30 29 2 29 30
M  V30 30 1 30 4
M  V30 31 1 28 11
M  V30 32 1 26 16
M  V30 33 1 25 19
M  V30 34 1 24 20
M  V30 35 1 1 31
M  V30 36 1 1 32
M  V30 37 1 1 33
M  V30 38 1 3 34
M  V30 39 1 3 35
M  V30 40 1 3 36
M  V30 41 1 5 37
M  V30 42 1 6 38
M  V30 43 1 8 39
M  V30 44 1 12 40
M  V30 45 1 13 41
M  V30 46 1 14 42
M  V30 47 1 19 43
M  V30 48 1 20 44
M  V30 49 1 21 45
M  V30 50 1 22 46
M  V30 51 1 23 47
M  V30 52 1 24 48
M  V30 53 1 24 49
M  V30 54 1 25 50
M  V30 55 1 28 51
M  V30 56 1 29 52
M  V30 57 1 30 53
M  V30 END BOND
M  V30 END CTAB
M  END
>  <Dataset>  (602) 
ChEMBL_Kinases

>  <Ligand_Instance>  (602) 
nan

>  <PDB_ID>  (602) 
nan

>  <Standardized_SMILES>  (602) 
CN(C)c1ccc(NC(=O)c2cccc(N3C(=O)C4C5C=CC(C5)C4C3=O)c2)cc1

>  <Name>  (602) 
nan

>  <Pocket>  (602) 
nan

>  <ATP_Site>  (602) 
nan

>  <Peripheral>  (602) 
nan

>  <Num_H_Atoms_ProtBoundConf>  (602) 
nan

>  <Num_Resolved_Atoms>  (602) 
nan

>  <Num_Not_Resolved_Atoms>  (602) 
nan

$$$$
CHEMBL1428011
     RDKit          3D

  0  0  0  0  0  0  0  0  0  0999 V3000
M  V30 BEGIN CTAB
M  V30 COUNTS 52 54 0 0 0
M  V30 BEGIN ATOM
M  V30 1 C 1.248030 -2.501135 1.320653 0
M  V30 2 C -0.102263 -2.694118 1.911141 0
M  V30 3 C -0.961466 -1.694613 1.991492 0
M  V30 4 C -0.598717 -0.352225 1.493270 0
M  V30 5 O -1.322441 0.666813 1.514501 0
M  V30 6 O 0.603816 -0.057184 0.934864 0
M  V30 7 C 1.060764 1.166244 0.430300 0
M  V30 8 C 1.228699 1.139367 -1.060236 0
M  V30 9 C 2.440816 1.774621 -1.611677 0
M  V30 10 C 3.487603 0.723367 -1.999440 0
M  V30 11 C 4.522290 0.541884 -0.901522 0
M  V30 12 C 3.861746 0.056748 0.381715 0
M  V30 13 C 3.472673 1.148182 1.290704 0
M  V30 14 C 2.166059 1.781238 1.207998 0
M  V30 15 C -2.330407 -1.759701 2.555156 0
M  V30 16 C -3.387633 -1.471898 1.543862 0
M  V30 17 C -3.550276 -2.521066 0.631312 0
M  V30 18 C -4.483577 -2.461137 -0.394962 0
M  V30 19 C -5.233387 -1.309127 -0.455139 0
M  V30 20 O -6.186495 -1.178801 -1.455371 0
M  V30 21 C -5.105815 -0.259617 0.417548 0
M  V30 22 C -4.174334 -0.345933 1.423493 0
M  V30 23 N -2.559759 -3.115748 3.005928 0
M  V30 24 C -1.709316 -4.254335 2.965625 0
M  V30 25 O -2.100317 -5.359654 3.413444 0
M  V30 26 N -0.437311 -3.990842 2.387056 0
M  V30 27 H 1.166310 -2.214830 0.248353 0
M  V30 28 H 1.840368 -3.437150 1.334607 0
M  V30 29 H 1.859853 -1.769041 1.901343 0
M  V30 30 H 0.190504 1.873120 0.592534 0
M  V30 31 H 0.313722 1.494627 -1.621764 0
M  V30 32 H 1.259363 0.045492 -1.344440 0
M  V30 33 H 2.921784 2.560216 -1.014474 0
M  V30 34 H 2.196197 2.267052 -2.583601 0
M  V30 35 H 4.049912 1.024099 -2.901124 0
M  V30 36 H 3.012851 -0.260999 -2.157725 0
M  V30 37 H 5.163609 1.429213 -0.752425 0
M  V30 38 H 5.188551 -0.267618 -1.285843 0
M  V30 39 H 4.625600 -0.603607 0.868561 0
M  V30 40 H 3.080808 -0.646984 0.053630 0
M  V30 41 H 3.712853 0.824835 2.348772 0
M  V30 42 H 4.249670 1.958633 1.136737 0
M  V30 43 H 1.742268 1.909823 2.251414 0
M  V30 44 H 2.201620 2.859349 0.869034 0
M  V30 45 H -2.366016 -1.038905 3.397914 0
M  V30 46 H -2.967240 -3.454791 0.651836 0
M  V30 47 H -4.615568 -3.260066 -1.099144 0
M  V30 48 H -6.359458 -1.907944 -2.132075 0
M  V30 49 H -5.691559 0.635109 0.366915 0
M  V30 50 H -3.977254 0.405827 2.170323 0
M  V30 51 H -3.525373 -3.209402 3.418413 0
M  V30 52 H 0.241986 -4.783932 2.324204 0
M  V30 END ATOM
M  V30 BEGIN BOND
M  V30 1 1 1 2
M  V30 2 2 2 3
M  V30 3 1 3 4
M  V30 4 2 4 5
M  V30 5 1 4 6
M  V30 6 1 6 7
M  V30 7 1 7 8
M  V30 8 1 8 9
M  V30 9 1 9 10
M  V30 10 1 10 11
M  V30 11 1 11 12
M  V30 12 1 12 13
M  V30 13 1 13 14
M  V30 14 1 3 15
M  V30 15 1 15 16
M  V30 16 2 16 17
M  V30 17 1 17 18
M  V30 18 2 18 19
M  V30 19 1 19 20
M  V30 20 1 19 21
M  V30 21 2 21 22
M  V30 22 1 15 23
M  V30 23 1 23 24
M  V30 24 2 24 25
M  V30 25 1 24 26
M  V30 26 1 26 2
M  V30 27 1 14 7
M  V30 28 1 22 16
M  V30 29 1 1 27
M  V30 30 1 1 28
M  V30 31 1 1 29
M  V30 32 1 7 30
M  V30 33 1 8 31
M  V30 34 1 8 32
M  V30 35 1 9 33
M  V30 36 1 9 34
M  V30 37 1 10 35
M  V30 38 1 10 36
M  V30 39 1 11 37
M  V30 40 1 11 38
M  V30 41 1 12 39
M  V30 42 1 12 40
M  V30 43 1 13 41
M  V30 44 1 13 42
M  V30 45 1 14 43
M  V30 46 1 14 44
M  V30 47 1 15 45
M  V30 48 1 17 46
M  V30 49 1 18 47
M  V30 50 1 20 48
M  V30 51 1 21 49
M  V30 52 1 22 50
M  V30 53 1 23 51
M  V30 54 1 26 52
M  V30 END BOND
M  V30 END CTAB
M  END
>  <Dataset>  (603) 
ChEMBL_Kinases

>  <Ligand_Instance>  (603) 
nan

>  <PDB_ID>  (603) 
nan

>  <Standardized_SMILES>  (603) 
CC1=C(C(=O)OC2CCCCCCC2)C(c2ccc(O)cc2)NC(=O)N1

>  <Name>  (603) 
nan

>  <Pocket>  (603) 
nan

>  <ATP_Site>  (603) 
nan

>  <Peripheral>  (603) 
nan

>  <Num_H_Atoms_ProtBoundConf>  (603) 
nan

>  <Num_Resolved_Atoms>  (603) 
nan

>  <Num_Not_Resolved_Atoms>  (603) 
nan

$$$$
CHEMBL1427588
     RDKit          3D

  0  0  0  0  0  0  0  0  0  0999 V3000
M  V30 BEGIN CTAB
M  V30 COUNTS 35 37 0 0 0
M  V30 BEGIN ATOM
M  V30 1 N -2.038929 -0.854269 2.881570 0
M  V30 2 C -0.820734 -0.725989 2.157973 0
M  V30 3 O -0.241182 -1.824144 1.994920 0
M  V30 4 C -0.292517 0.539293 1.655130 0
M  V30 5 C 0.864645 0.440143 1.002270 0
M  V30 6 N 1.777706 -0.619164 0.640413 0
M  V30 7 C 1.546081 -1.247604 -0.601998 0
M  V30 8 O 0.565444 -0.858362 -1.326419 0
M  V30 9 C 2.319931 -2.344554 -1.204858 0
M  V30 10 C 2.382828 -3.599820 -0.402562 0
M  V30 11 C 1.714516 -4.609197 -1.315669 0
M  V30 12 C 0.866747 -3.710263 -2.193632 0
M  V30 13 O 1.747124 -2.655946 -2.429156 0
M  V30 14 S 1.277455 2.073967 0.508577 0
M  V30 15 C -0.205592 2.842486 1.244426 0
M  V30 16 C -0.883574 1.764176 1.805031 0
M  V30 17 C -2.114236 2.315338 2.436489 0
M  V30 18 C -2.407865 3.464649 1.499162 0
M  V30 19 C -1.015841 4.099939 1.504379 0
M  V30 20 H -2.779257 -1.199660 2.232069 0
M  V30 21 H -1.641170 -0.532884 3.783679 0
M  V30 22 H 2.569847 -0.960287 1.185872 0
M  V30 23 H 3.361345 -2.004104 -1.394477 0
M  V30 24 H 1.845875 -3.594680 0.543782 0
M  V30 25 H 3.427491 -3.903820 -0.182237 0
M  V30 26 H 2.442079 -5.151638 -1.960813 0
M  V30 27 H 1.088666 -5.309637 -0.711167 0
M  V30 28 H 0.025648 -3.283690 -1.617191 0
M  V30 29 H 0.602997 -4.187792 -3.136038 0
M  V30 30 H -2.949311 1.596561 2.497650 0
M  V30 31 H -1.794579 2.678798 3.441221 0
M  V30 32 H -3.189772 4.139579 1.861709 0
M  V30 33 H -2.553658 3.064781 0.493413 0
M  V30 34 H -0.706020 4.477494 2.471644 0
M  V30 35 H -0.898028 4.808843 0.664129 0
M  V30 END ATOM
M  V30 BEGIN BOND
M  V30 1 1 1 2
M  V30 2 2 2 3
M  V30 3 1 2 4
M  V30 4 2 4 5
M  V30 5 1 5 6
M  V30 6 1 6 7
M  V30 7 2 7 8
M  V30 8 1 7 9
M  V30 9 1 9 10
M  V30 10 1 10 11
M  V30 11 1 11 12
M  V30 12 1 12 13
M  V30 13 1 5 14
M  V30 14 1 14 15
M  V30 15 2 15 16
M  V30 16 1 16 17
M  V30 17 1 17 18
M  V30 18 1 18 19
M  V30 19 1 16 4
M  V30 20 1 13 9
M  V30 21 1 19 15
M  V30 22 1 1 20
M  V30 23 1 1 21
M  V30 24 1 6 22
M  V30 25 1 9 23
M  V30 26 1 10 24
M  V30 27 1 10 25
M  V30 28 1 11 26
M  V30 29 1 11 27
M  V30 30 1 12 28
M  V30 31 1 12 29
M  V30 32 1 17 30
M  V30 33 1 17 31
M  V30 34 1 18 32
M  V30 35 1 18 33
M  V30 36 1 19 34
M  V30 37 1 19 35
M  V30 END BOND
M  V30 END CTAB
M  END
>  <Dataset>  (604) 
ChEMBL_Kinases

>  <Ligand_Instance>  (604) 
nan

>  <PDB_ID>  (604) 
nan

>  <Standardized_SMILES>  (604) 
NC(=O)c1c(NC(=O)C2CCCO2)sc2c1CCC2

>  <Name>  (604) 
nan

>  <Pocket>  (604) 
nan

>  <ATP_Site>  (604) 
nan

>  <Peripheral>  (604) 
nan

>  <Num_H_Atoms_ProtBoundConf>  (604) 
nan

>  <Num_Resolved_Atoms>  (604) 
nan

>  <Num_Not_Resolved_Atoms>  (604) 
nan

$$$$
CHEMBL1421272
     RDKit          3D

  0  0  0  0  0  0  0  0  0  0999 V3000
M  V30 BEGIN CTAB
M  V30 COUNTS 46 48 0 0 0
M  V30 BEGIN ATOM
M  V30 1 C -0.555985 -5.132986 0.820976 0
M  V30 2 C -0.247742 -3.755826 1.300792 0
M  V30 3 C 0.638311 -3.466250 2.252481 0
M  V30 4 C 0.941527 -2.092313 2.726254 0
M  V30 5 N 0.198541 -1.066437 2.083214 0
M  V30 6 C 0.518558 -0.414363 0.957595 0
M  V30 7 N 1.586701 -0.454885 0.028444 0
M  V30 8 C 1.109714 -0.887685 -1.283331 0
M  V30 9 C 0.948284 0.359417 -2.147279 0
M  V30 10 C 2.258410 1.154032 -2.190936 0
M  V30 11 C 2.437487 2.016466 -0.973827 0
M  V30 12 C 3.244991 1.354581 0.111072 0
M  V30 13 C 2.967682 -0.130283 0.252927 0
M  V30 14 N -0.471090 0.457219 0.717557 0
M  V30 15 C -1.430400 0.391743 1.655461 0
M  V30 16 C -0.969694 -0.591593 2.511854 0
M  V30 17 C -1.817781 -0.836003 3.575057 0
M  V30 18 O -1.457746 -1.722213 4.396251 0
M  V30 19 N -2.983585 -0.193890 3.777246 0
M  V30 20 C -3.360456 0.749174 2.894680 0
M  V30 21 O -4.412377 1.422219 2.957214 0
M  V30 22 N -2.600269 1.068684 1.811344 0
M  V30 23 C -2.918944 2.057667 0.798767 0
M  V30 24 H -0.127331 -5.877659 1.548473 0
M  V30 25 H -1.641771 -5.337645 0.757860 0
M  V30 26 H -0.037284 -5.350131 -0.141698 0
M  V30 27 H -0.799369 -2.953234 0.814884 0
M  V30 28 H 1.180227 -4.289536 2.715910 0
M  V30 29 H 0.802213 -2.063617 3.831929 0
M  V30 30 H 2.018664 -1.937788 2.568976 0
M  V30 31 H 0.114315 -1.354734 -1.211264 0
M  V30 32 H 1.802636 -1.590331 -1.765501 0
M  V30 33 H 0.647823 0.054123 -3.165212 0
M  V30 34 H 0.151268 1.017223 -1.736543 0
M  V30 35 H 3.120281 0.506370 -2.398176 0
M  V30 36 H 2.158324 1.840572 -3.083322 0
M  V30 37 H 1.451030 2.370647 -0.620180 0
M  V30 38 H 2.993880 2.932823 -1.300335 0
M  V30 39 H 4.335812 1.469412 -0.033982 0
M  V30 40 H 2.989296 1.834939 1.070705 0
M  V30 41 H 3.621685 -0.754342 -0.389184 0
M  V30 42 H 3.212565 -0.365761 1.310207 0
M  V30 43 H -3.631186 -0.366508 4.570457 0
M  V30 44 H -2.467683 3.037366 0.959079 0
M  V30 45 H -4.025917 2.147812 0.760982 0
M  V30 46 H -2.605319 1.697061 -0.209971 0
M  V30 END ATOM
M  V30 BEGIN BOND
M  V30 1 1 1 2
M  V30 2 2 2 3
M  V30 3 1 3 4
M  V30 4 1 4 5
M  V30 5 1 5 6
M  V30 6 1 6 7
M  V30 7 1 7 8
M  V30 8 1 8 9
M  V30 9 1 9 10
M  V30 10 1 10 11
M  V30 11 1 11 12
M  V30 12 1 12 13
M  V30 13 2 6 14
M  V30 14 1 14 15
M  V30 15 2 15 16
M  V30 16 1 16 17
M  V30 17 2 17 18
M  V30 18 1 17 19
M  V30 19 1 19 20
M  V30 20 2 20 21
M  V30 21 1 20 22
M  V30 22 1 22 23
M  V30 23 1 16 5
M  V30 24 1 13 7
M  V30 25 1 22 15
M  V30 26 1 1 24
M  V30 27 1 1 25
M  V30 28 1 1 26
M  V30 29 1 2 27
M  V30 30 1 3 28
M  V30 31 1 4 29
M  V30 32 1 4 30
M  V30 33 1 8 31
M  V30 34 1 8 32
M  V30 35 1 9 33
M  V30 36 1 9 34
M  V30 37 1 10 35
M  V30 38 1 10 36
M  V30 39 1 11 37
M  V30 40 1 11 38
M  V30 41 1 12 39
M  V30 42 1 12 40
M  V30 43 1 13 41
M  V30 44 1 13 42
M  V30 45 1 19 43
M  V30 46 1 23 44
M  V30 47 1 23 45
M  V30 48 1 23 46
M  V30 END BOND
M  V30 END CTAB
M  END
>  <Dataset>  (605) 
ChEMBL_Kinases

>  <Ligand_Instance>  (605) 
nan

>  <PDB_ID>  (605) 
nan

>  <Standardized_SMILES>  (605) 
C/C=C/Cn1c(N2CCCCCC2)nc2c1c(=O)[nH]c(=O)n2C

>  <Name>  (605) 
nan

>  <Pocket>  (605) 
nan

>  <ATP_Site>  (605) 
nan

>  <Peripheral>  (605) 
nan

>  <Num_H_Atoms_ProtBoundConf>  (605) 
nan

>  <Num_Resolved_Atoms>  (605) 
nan

>  <Num_Not_Resolved_Atoms>  (605) 
nan

$$$$
CHEMBL1421259
     RDKit          3D

  0  0  0  0  0  0  0  0  0  0999 V3000
M  V30 BEGIN CTAB
M  V30 COUNTS 50 53 0 0 0
M  V30 BEGIN ATOM
M  V30 1 C -2.195224 -0.160907 3.619730 0
M  V30 2 C -0.997598 -1.083642 3.718001 0
M  V30 3 O -0.579695 -1.400582 2.409820 0
M  V30 4 C 0.507601 -2.251239 2.130668 0
M  V30 5 O 1.136453 -2.751100 3.104937 0
M  V30 6 C 0.770506 -2.448824 0.711122 0
M  V30 7 C 1.650428 -1.659688 -0.129359 0
M  V30 8 N 2.426819 -0.531518 0.316057 0
M  V30 9 C 3.235950 0.089651 -0.636310 0
M  V30 10 O 3.202825 -0.408977 -1.815744 0
M  V30 11 C 4.129678 1.247673 -0.462326 0
M  V30 12 S 3.254268 2.741810 -0.967961 0
M  V30 13 C 1.939767 3.121999 0.164525 0
M  V30 14 C 2.281635 3.946649 1.231675 0
M  V30 15 N 1.164792 4.139457 1.978351 0
M  V30 16 C 0.140799 3.453143 1.398815 0
M  V30 17 C -1.199427 3.276794 1.694087 0
M  V30 18 C -1.979344 2.493096 0.866794 0
M  V30 19 C -1.455412 1.869264 -0.264750 0
M  V30 20 C -0.105345 2.023920 -0.595988 0
M  V30 21 C 0.601338 2.812984 0.269013 0
M  V30 22 S 1.556748 -2.364998 -1.726913 0
M  V30 23 C 0.431702 -3.638441 -1.369694 0
M  V30 24 C 0.160055 -3.461607 0.030470 0
M  V30 25 C -0.806471 -4.526106 0.412053 0
M  V30 26 C -2.063416 -4.246711 -0.424131 0
M  V30 27 C -1.749375 -4.607062 -1.860559 0
M  V30 28 C -0.246116 -4.742659 -2.070324 0
M  V30 29 H -2.123805 0.720138 4.310554 0
M  V30 30 H -3.142335 -0.687923 3.924982 0
M  V30 31 H -2.334959 0.186440 2.574784 0
M  V30 32 H -1.329056 -1.965531 4.307467 0
M  V30 33 H -0.198628 -0.521891 4.244701 0
M  V30 34 H 2.424612 -0.165204 1.261862 0
M  V30 35 H 4.995038 1.112246 -1.180140 0
M  V30 36 H 4.518920 1.325827 0.581852 0
M  V30 37 H 3.207969 4.440031 1.568004 0
M  V30 38 H 1.050531 4.713065 2.863445 0
M  V30 39 H -1.566705 3.777892 2.578325 0
M  V30 40 H -3.037447 2.391503 1.153978 0
M  V30 41 H -2.102130 1.264253 -0.883322 0
M  V30 42 H 0.337184 1.561963 -1.456082 0
M  V30 43 H -1.045576 -4.494946 1.492035 0
M  V30 44 H -0.443823 -5.525967 0.091521 0
M  V30 45 H -2.252029 -3.157716 -0.383981 0
M  V30 46 H -2.936382 -4.805059 -0.056031 0
M  V30 47 H -2.183559 -5.613035 -2.019358 0
M  V30 48 H -2.188270 -3.826820 -2.535493 0
M  V30 49 H -0.085649 -4.559387 -3.146673 0
M  V30 50 H 0.123677 -5.743696 -1.855223 0
M  V30 END ATOM
M  V30 BEGIN BOND
M  V30 1 1 1 2
M  V30 2 1 2 3
M  V30 3 1 3 4
M  V30 4 2 4 5
M  V30 5 1 4 6
M  V30 6 2 6 7
M  V30 7 1 7 8
M  V30 8 1 8 9
M  V30 9 2 9 10
M  V30 10 1 9 11
M  V30 11 1 11 12
M  V30 12 1 12 13
M  V30 13 2 13 14
M  V30 14 1 14 15
M  V30 15 1 15 16
M  V30 16 2 16 17
M  V30 17 1 17 18
M  V30 18 2 18 19
M  V30 19 1 19 20
M  V30 20 2 20 21
M  V30 21 1 7 22
M  V30 22 1 22 23
M  V30 23 2 23 24
M  V30 24 1 24 25
M  V30 25 1 25 26
M  V30 26 1 26 27
M  V30 27 1 27 28
M  V30 28 1 24 6
M  V30 29 1 21 13
M  V30 30 1 28 23
M  V30 31 1 21 16
M  V30 32 1 1 29
M  V30 33 1 1 30
M  V30 34 1 1 31
M  V30 35 1 2 32
M  V30 36 1 2 33
M  V30 37 1 8 34
M  V30 38 1 11 35
M  V30 39 1 11 36
M  V30 40 1 14 37
M  V30 41 1 15 38
M  V30 42 1 17 39
M  V30 43 1 18 40
M  V30 44 1 19 41
M  V30 45 1 20 42
M  V30 46 1 25 43
M  V30 47 1 25 44
M  V30 48 1 26 45
M  V30 49 1 26 46
M  V30 50 1 27 47
M  V30 51 1 27 48
M  V30 52 1 28 49
M  V30 53 1 28 50
M  V30 END BOND
M  V30 END CTAB
M  END
>  <Dataset>  (606) 
ChEMBL_Kinases

>  <Ligand_Instance>  (606) 
nan

>  <PDB_ID>  (606) 
nan

>  <Standardized_SMILES>  (606) 
CCOC(=O)c1c(NC(=O)CSc2c[nH]c3ccccc23)sc2c1CCCC2

>  <Name>  (606) 
nan

>  <Pocket>  (606) 
nan

>  <ATP_Site>  (606) 
nan

>  <Peripheral>  (606) 
nan

>  <Num_H_Atoms_ProtBoundConf>  (606) 
nan

>  <Num_Resolved_Atoms>  (606) 
nan

>  <Num_Not_Resolved_Atoms>  (606) 
nan

$$$$
CHEMBL1421109
     RDKit          3D

  0  0  0  0  0  0  0  0  0  0999 V3000
M  V30 BEGIN CTAB
M  V30 COUNTS 63 66 0 0 0
M  V30 BEGIN ATOM
M  V30 1 O 2.538058 0.179250 -1.943298 0
M  V30 2 C 3.595028 -0.392334 -2.279987 0
M  V30 3 C 4.404122 -0.896330 -1.145594 0
M  V30 4 O 3.742731 -0.587199 0.080041 0
M  V30 5 C 4.244119 -0.925419 1.301730 0
M  V30 6 O 5.339056 -1.538568 1.373619 0
M  V30 7 C 3.514034 -0.576922 2.503153 0
M  V30 8 C 4.019907 -0.919708 3.736440 0
M  V30 9 C 3.290982 -0.566978 4.848471 0
M  V30 10 C 2.087735 0.107904 4.787273 0
M  V30 11 C 1.557012 0.464951 3.545333 0
M  V30 12 S 0.070622 1.310171 3.237768 0
M  V30 13 O 0.243224 2.158440 2.027919 0
M  V30 14 O -0.198117 2.244163 4.401385 0
M  V30 15 N -1.288741 0.320416 3.049599 0
M  V30 16 C -1.257403 -0.600990 1.964141 0
M  V30 17 C -2.682009 -1.019992 1.577697 0
M  V30 18 N -3.394774 -1.363435 2.792004 0
M  V30 19 C -4.784572 -1.520574 2.725581 0
M  V30 20 C -5.402538 -1.355611 1.505399 0
M  V30 21 C -6.777454 -1.494414 1.356739 0
M  V30 22 C -7.601192 -1.806760 2.430453 0
M  V30 23 C -6.993148 -1.974276 3.657639 0
M  V30 24 C -5.625845 -1.829848 3.773056 0
M  V30 25 C -2.553512 -1.507164 3.961743 0
M  V30 26 C -1.872815 -0.185662 4.249078 0
M  V30 27 C 2.312940 0.096966 2.436877 0
M  V30 28 N 3.924395 -0.510943 -3.632166 0
M  V30 29 C 3.320299 -0.126118 -4.855825 0
M  V30 30 C 1.996457 -0.725731 -5.205331 0
M  V30 31 C 0.868528 -0.299952 -4.344194 0
M  V30 32 C -0.337618 -0.399652 -5.280980 0
M  V30 33 C 0.300754 -0.384627 -6.628794 0
M  V30 34 O 1.647280 -0.195597 -6.457506 0
M  V30 35 H 4.539034 -1.987842 -1.283470 0
M  V30 36 H 5.421975 -0.413935 -1.176561 0
M  V30 37 H 4.954751 -1.445011 3.804655 0
M  V30 38 H 3.661452 -0.822545 5.837222 0
M  V30 39 H 1.480063 0.406494 5.623529 0
M  V30 40 H -0.837423 -0.107931 1.077161 0
M  V30 41 H -0.643586 -1.498316 2.161454 0
M  V30 42 H -2.652232 -1.869601 0.865467 0
M  V30 43 H -3.193434 -0.165385 1.069958 0
M  V30 44 H -4.924131 -1.112789 0.568526 0
M  V30 45 H -7.303553 -1.373845 0.419279 0
M  V30 46 H -8.654566 -1.915510 2.329036 0
M  V30 47 H -7.607616 -2.216414 4.504482 0
M  V30 48 H -5.182596 -1.967800 4.748975 0
M  V30 49 H -3.158545 -1.836657 4.806625 0
M  V30 50 H -1.762958 -2.295837 3.793606 0
M  V30 51 H -1.194140 -0.250848 5.107195 0
M  V30 52 H -2.688429 0.514222 4.556754 0
M  V30 53 H 1.965329 0.340427 1.427540 0
M  V30 54 H 4.858892 -1.016772 -3.732260 0
M  V30 55 H 3.159902 1.002169 -4.813708 0
M  V30 56 H 3.984174 -0.278578 -5.731817 0
M  V30 57 H 2.092562 -1.835598 -5.257812 0
M  V30 58 H 0.937709 0.743257 -4.049206 0
M  V30 59 H 0.744886 -1.020292 -3.501068 0
M  V30 60 H -0.808017 -1.393232 -5.113132 0
M  V30 61 H -1.038233 0.438769 -5.133304 0
M  V30 62 H -0.078415 0.521465 -7.181092 0
M  V30 63 H 0.024136 -1.252089 -7.257203 0
M  V30 END ATOM
M  V30 BEGIN BOND
M  V30 1 2 1 2
M  V30 2 1 2 3
M  V30 3 1 3 4
M  V30 4 1 4 5
M  V30 5 2 5 6
M  V30 6 1 5 7
M  V30 7 2 7 8
M  V30 8 1 8 9
M  V30 9 2 9 10
M  V30 10 1 10 11
M  V30 11 1 11 12
M  V30 12 2 12 13
M  V30 13 2 12 14
M  V30 14 1 12 15
M  V30 15 1 15 16
M  V30 16 1 16 17
M  V30 17 1 17 18
M  V30 18 1 18 19
M  V30 19 2 19 20
M  V30 20 1 20 21
M  V30 21 2 21 22
M  V30 22 1 22 23
M  V30 23 2 23 24
M  V30 24 1 18 25
M  V30 25 1 25 26
M  V30 26 2 11 27
M  V30 27 1 2 28
M  V30 28 1 28 29
M  V30 29 1 29 30
M  V30 30 1 30 31
M  V30 31 1 31 32
M  V30 32 1 32 33
M  V30 33 1 33 34
M  V30 34 1 27 7
M  V30 35 1 34 30
M  V30 36 1 26 15
M  V30 37 1 24 19
M  V30 38 1 3 35
M  V30 39 1 3 36
M  V30 40 1 8 37
M  V30 41 1 9 38
M  V30 42 1 10 39
M  V30 43 1 16 40
M  V30 44 1 16 41
M  V30 45 1 17 42
M  V30 46 1 17 43
M  V30 47 1 20 44
M  V30 48 1 21 45
M  V30 49 1 22 46
M  V30 50 1 23 47
M  V30 51 1 24 48
M  V30 52 1 25 49
M  V30 53 1 25 50
M  V30 54 1 26 51
M  V30 55 1 26 52
M  V30 56 1 27 53
M  V30 57 1 28 54
M  V30 58 1 29 55
M  V30 59 1 29 56
M  V30 60 1 30 57
M  V30 61 1 31 58
M  V30 62 1 31 59
M  V30 63 1 32 60
M  V30 64 1 32 61
M  V30 65 1 33 62
M  V30 66 1 33 63
M  V30 END BOND
M  V30 END CTAB
M  END
>  <Dataset>  (607) 
ChEMBL_Kinases

>  <Ligand_Instance>  (607) 
nan

>  <PDB_ID>  (607) 
nan

>  <Standardized_SMILES>  (607) 
O=C(COC(=O)c1cccc(S(=O)(=O)N2CCN(c3ccccc3)CC2)c1)NCC1CCCO1

>  <Name>  (607) 
nan

>  <Pocket>  (607) 
nan

>  <ATP_Site>  (607) 
nan

>  <Peripheral>  (607) 
nan

>  <Num_H_Atoms_ProtBoundConf>  (607) 
nan

>  <Num_Resolved_Atoms>  (607) 
nan

>  <Num_Not_Resolved_Atoms>  (607) 
nan

$$$$
CHEMBL1421029
     RDKit          3D

  0  0  0  0  0  0  0  0  0  0999 V3000
M  V30 BEGIN CTAB
M  V30 COUNTS 50 54 0 0 0
M  V30 BEGIN ATOM
M  V30 1 O 3.608739 -0.153516 4.752541 0
M  V30 2 S 3.589176 -0.545285 3.309627 0
M  V30 3 O 4.328040 -1.865533 3.196494 0
M  V30 4 C 4.427447 0.592429 2.299399 0
M  V30 5 C 5.228108 0.235006 1.239965 0
M  V30 6 C 5.921116 1.106115 0.396729 0
M  V30 7 C 5.749734 2.441105 0.701182 0
M  V30 8 C 4.980889 2.930347 1.727400 0
M  V30 9 C 4.355266 1.969217 2.478629 0
M  V30 10 N 1.982068 -0.822631 2.741729 0
M  V30 11 C 1.284465 0.449288 2.799406 0
M  V30 12 C -0.153835 0.341100 2.343992 0
M  V30 13 N -0.208567 -0.575743 1.231679 0
M  V30 14 C -1.293546 -1.357256 0.771328 0
M  V30 15 C -2.135398 -0.938515 -0.266608 0
M  V30 16 C -3.191715 -1.709289 -0.698528 0
M  V30 17 C -4.101695 -1.342965 -1.770908 0
M  V30 18 C -5.114616 -2.202508 -2.113441 0
M  V30 19 C -6.013456 -1.891952 -3.141513 0
M  V30 20 C -5.881215 -0.687699 -3.833521 0
M  V30 21 C -4.840329 0.164357 -3.460506 0
M  V30 22 C -3.962658 -0.151840 -2.447956 0
M  V30 23 N -3.354310 -2.896035 -0.047317 0
M  V30 24 C -2.525771 -3.263991 0.944175 0
M  V30 25 N -2.628337 -4.423085 1.631028 0
M  V30 26 C -1.627172 -4.419332 2.528404 0
M  V30 27 N -0.956096 -3.270146 2.359247 0
M  V30 28 N -1.485931 -2.534865 1.388855 0
M  V30 29 C 1.051966 -0.679814 0.498829 0
M  V30 30 C 2.034003 -1.376911 1.425411 0
M  V30 31 H 5.362381 -0.829642 1.003195 0
M  V30 32 H 6.530095 0.734360 -0.413762 0
M  V30 33 H 6.274637 3.151391 0.063659 0
M  V30 34 H 4.862267 3.978272 1.945348 0
M  V30 35 H 3.732691 2.312705 3.307717 0
M  V30 36 H 1.384446 0.809155 3.853122 0
M  V30 37 H 1.806431 1.211540 2.151267 0
M  V30 38 H -0.481551 1.360796 2.034912 0
M  V30 39 H -0.826523 0.030445 3.170164 0
M  V30 40 H -1.948949 0.013220 -0.739633 0
M  V30 41 H -5.234472 -3.151523 -1.581305 0
M  V30 42 H -6.798821 -2.634816 -3.355214 0
M  V30 43 H -6.594159 -0.474357 -4.627755 0
M  V30 44 H -4.732166 1.104618 -3.996020 0
M  V30 45 H -3.201692 0.557921 -2.234774 0
M  V30 46 H -1.438224 -5.216830 3.234546 0
M  V30 47 H 1.433375 0.358283 0.323577 0
M  V30 48 H 0.960990 -1.268062 -0.418268 0
M  V30 49 H 1.710432 -2.443125 1.497775 0
M  V30 50 H 3.033966 -1.365837 0.964963 0
M  V30 END ATOM
M  V30 BEGIN BOND
M  V30 1 2 1 2
M  V30 2 2 2 3
M  V30 3 1 2 4
M  V30 4 2 4 5
M  V30 5 1 5 6
M  V30 6 2 6 7
M  V30 7 1 7 8
M  V30 8 2 8 9
M  V30 9 1 2 10
M  V30 10 1 10 11
M  V30 11 1 11 12
M  V30 12 1 12 13
M  V30 13 1 13 14
M  V30 14 2 14 15
M  V30 15 1 15 16
M  V30 16 1 16 17
M  V30 17 2 17 18
M  V30 18 1 18 19
M  V30 19 2 19 20
M  V30 20 1 20 21
M  V30 21 2 21 22
M  V30 22 2 16 23
M  V30 23 1 23 24
M  V30 24 2 24 25
M  V30 25 1 25 26
M  V30 26 2 26 27
M  V30 27 1 27 28
M  V30 28 1 13 29
M  V30 29 1 29 30
M  V30 30 1 9 4
M  V30 31 1 30 10
M  V30 32 1 28 14
M  V30 33 1 22 17
M  V30 34 1 28 24
M  V30 35 1 5 31
M  V30 36 1 6 32
M  V30 37 1 7 33
M  V30 38 1 8 34
M  V30 39 1 9 35
M  V30 40 1 11 36
M  V30 41 1 11 37
M  V30 42 1 12 38
M  V30 43 1 12 39
M  V30 44 1 15 40
M  V30 45 1 18 41
M  V30 46 1 19 42
M  V30 47 1 20 43
M  V30 48 1 21 44
M  V30 49 1 22 45
M  V30 50 1 26 46
M  V30 51 1 29 47
M  V30 52 1 29 48
M  V30 53 1 30 49
M  V30 54 1 30 50
M  V30 END BOND
M  V30 END CTAB
M  END
>  <Dataset>  (608) 
ChEMBL_Kinases

>  <Ligand_Instance>  (608) 
nan

>  <PDB_ID>  (608) 
nan

>  <Standardized_SMILES>  (608) 
O=S(=O)(c1ccccc1)N1CCN(c2cc(-c3ccccc3)nc3ncnn23)CC1

>  <Name>  (608) 
nan

>  <Pocket>  (608) 
nan

>  <ATP_Site>  (608) 
nan

>  <Peripheral>  (608) 
nan

>  <Num_H_Atoms_ProtBoundConf>  (608) 
nan

>  <Num_Resolved_Atoms>  (608) 
nan

>  <Num_Not_Resolved_Atoms>  (608) 
nan

$$$$
CHEMBL1421003
     RDKit          3D

  0  0  0  0  0  0  0  0  0  0999 V3000
M  V30 BEGIN CTAB
M  V30 COUNTS 42 43 0 0 0
M  V30 BEGIN ATOM
M  V30 1 C -2.285386 -5.079691 1.700025 0
M  V30 2 C -1.052749 -4.237791 1.648966 0
M  V30 3 C -0.558722 -3.621363 2.806844 0
M  V30 4 C 0.584948 -2.849750 2.723945 0
M  V30 5 C 1.221891 -2.702098 1.489548 0
M  V30 6 S 2.672053 -1.707622 1.456080 0
M  V30 7 O 3.637326 -2.139062 0.418420 0
M  V30 8 O 3.310413 -1.732041 2.792146 0
M  V30 9 N 2.172737 -0.030952 1.159935 0
M  V30 10 C 1.518706 0.017992 -0.121688 0
M  V30 11 C 1.064461 1.371925 -0.509131 0
M  V30 12 N 0.150092 2.066639 0.323454 0
M  V30 13 C -0.371015 3.214835 -0.477163 0
M  V30 14 C 0.514159 4.381543 -0.268659 0
M  V30 15 O 1.832633 4.128400 0.020533 0
M  V30 16 C 1.996048 3.448775 1.198352 0
M  V30 17 C 0.710307 2.722467 1.490382 0
M  V30 18 C 0.738237 -3.307724 0.347047 0
M  V30 19 C -0.420352 -4.089805 0.428157 0
M  V30 20 C -0.917808 -4.730847 -0.819050 0
M  V30 21 H -2.847158 -4.906282 2.657657 0
M  V30 22 H -2.081430 -6.160662 1.673447 0
M  V30 23 H -2.987144 -4.835331 0.884895 0
M  V30 24 H -1.088070 -3.765755 3.740892 0
M  V30 25 H 0.997244 -2.355053 3.606238 0
M  V30 26 H 1.356885 0.047534 1.861253 0
M  V30 27 H 0.600386 -0.653509 -0.048413 0
M  V30 28 H 2.152998 -0.435141 -0.924749 0
M  V30 29 H 1.934825 2.006876 -0.832441 0
M  V30 30 H 0.508075 1.234915 -1.501625 0
M  V30 31 H -0.481059 2.893511 -1.533333 0
M  V30 32 H -1.365535 3.418471 -0.029114 0
M  V30 33 H 0.505457 4.979564 -1.234362 0
M  V30 34 H 0.125048 5.075876 0.530210 0
M  V30 35 H 2.224848 4.096084 2.067537 0
M  V30 36 H 2.811110 2.680164 1.140163 0
M  V30 37 H 0.823357 2.127772 2.385159 0
M  V30 38 H -0.076071 3.512441 1.754583 0
M  V30 39 H 1.254184 -3.180976 -0.616163 0
M  V30 40 H -1.251207 -3.922470 -1.498517 0
M  V30 41 H -1.699932 -5.474803 -0.597962 0
M  V30 42 H -0.069901 -5.299604 -1.261785 0
M  V30 END ATOM
M  V30 BEGIN BOND
M  V30 1 1 1 2
M  V30 2 2 2 3
M  V30 3 1 3 4
M  V30 4 2 4 5
M  V30 5 1 5 6
M  V30 6 2 6 7
M  V30 7 2 6 8
M  V30 8 1 6 9
M  V30 9 1 9 10
M  V30 10 1 10 11
M  V30 11 1 11 12
M  V30 12 1 12 13
M  V30 13 1 13 14
M  V30 14 1 14 15
M  V30 15 1 15 16
M  V30 16 1 16 17
M  V30 17 1 5 18
M  V30 18 2 18 19
M  V30 19 1 19 20
M  V30 20 1 19 2
M  V30 21 1 17 12
M  V30 22 1 1 21
M  V30 23 1 1 22
M  V30 24 1 1 23
M  V30 25 1 3 24
M  V30 26 1 4 25
M  V30 27 1 9 26
M  V30 28 1 10 27
M  V30 29 1 10 28
M  V30 30 1 11 29
M  V30 31 1 11 30
M  V30 32 1 13 31
M  V30 33 1 13 32
M  V30 34 1 14 33
M  V30 35 1 14 34
M  V30 36 1 16 35
M  V30 37 1 16 36
M  V30 38 1 17 37
M  V30 39 1 17 38
M  V30 40 1 18 39
M  V30 41 1 20 40
M  V30 42 1 20 41
M  V30 43 1 20 42
M  V30 END BOND
M  V30 END CTAB
M  END
>  <Dataset>  (609) 
ChEMBL_Kinases

>  <Ligand_Instance>  (609) 
nan

>  <PDB_ID>  (609) 
nan

>  <Standardized_SMILES>  (609) 
Cc1ccc(S(=O)(=O)NCCN2CCOCC2)cc1C

>  <Name>  (609) 
nan

>  <Pocket>  (609) 
nan

>  <ATP_Site>  (609) 
nan

>  <Peripheral>  (609) 
nan

>  <Num_H_Atoms_ProtBoundConf>  (609) 
nan

>  <Num_Resolved_Atoms>  (609) 
nan

>  <Num_Not_Resolved_Atoms>  (609) 
nan

$$$$
CHEMBL1420853
     RDKit          3D

  0  0  0  0  0  0  0  0  0  0999 V3000
M  V30 BEGIN CTAB
M  V30 COUNTS 51 54 0 0 0
M  V30 BEGIN ATOM
M  V30 1 C 3.033563 -4.884061 -2.843560 0
M  V30 2 C 3.744387 -3.683506 -2.342113 0
M  V30 3 C 3.609656 -3.190244 -1.063289 0
M  V30 4 C 4.403080 -2.052668 -0.889355 0
M  V30 5 N 4.508619 -1.289900 0.300853 0
M  V30 6 C 3.716740 -0.162667 0.697981 0
M  V30 7 O 2.813033 0.209463 -0.097157 0
M  V30 8 C 4.196835 0.295084 2.016609 0
M  V30 9 O 3.485289 1.408185 2.512141 0
M  V30 10 C 2.128391 1.303440 2.715387 0
M  V30 11 O 1.749126 0.137316 2.389431 0
M  V30 12 C 1.285163 2.422399 3.240563 0
M  V30 13 S -0.461177 1.887302 3.341544 0
M  V30 14 C -1.096892 1.619097 1.670647 0
M  V30 15 N -0.327050 1.816932 0.567185 0
M  V30 16 C -1.081497 1.538241 -0.531887 0
M  V30 17 C -0.774838 1.583615 -1.876066 0
M  V30 18 C -1.767535 1.239873 -2.773577 0
M  V30 19 Cl -1.479012 1.264734 -4.521426 0
M  V30 20 C -3.008629 0.869640 -2.313975 0
M  V30 21 C -3.269513 0.838945 -0.959767 0
M  V30 22 C -2.311611 1.173035 -0.025843 0
M  V30 23 N -2.329372 1.219623 1.317890 0
M  V30 24 C -3.423833 0.910713 2.219696 0
M  V30 25 C -3.427041 -0.530536 2.617457 0
M  V30 26 C -4.121436 -1.453273 1.865745 0
M  V30 27 C -4.193761 -2.804125 2.138327 0
M  V30 28 C -3.514890 -3.272106 3.256220 0
M  V30 29 C -2.805750 -2.381324 4.038336 0
M  V30 30 C -2.768200 -1.037383 3.717167 0
M  V30 31 N 4.984307 -1.926514 -2.110334 0
M  V30 32 O 4.592485 -2.864786 -2.913718 0
M  V30 33 H 3.417639 -5.808766 -2.333664 0
M  V30 34 H 1.957926 -4.809648 -2.593406 0
M  V30 35 H 3.148023 -4.993937 -3.949116 0
M  V30 36 H 2.992561 -3.578576 -0.252577 0
M  V30 37 H 5.308283 -1.774689 0.789332 0
M  V30 38 H 5.278353 0.594876 1.963475 0
M  V30 39 H 4.162156 -0.553314 2.742257 0
M  V30 40 H 1.629549 2.808386 4.208293 0
M  V30 41 H 1.320222 3.247277 2.495884 0
M  V30 42 H 0.202810 1.874781 -2.248168 0
M  V30 43 H -3.799649 0.597174 -3.001197 0
M  V30 44 H -4.254947 0.543460 -0.641072 0
M  V30 45 H -4.424149 1.133668 1.784137 0
M  V30 46 H -3.315271 1.514812 3.141420 0
M  V30 47 H -4.681258 -1.178945 0.974498 0
M  V30 48 H -4.733649 -3.511180 1.550983 0
M  V30 49 H -3.560186 -4.336110 3.487848 0
M  V30 50 H -2.278452 -2.755575 4.910430 0
M  V30 51 H -2.210895 -0.344947 4.334188 0
M  V30 END ATOM
M  V30 BEGIN BOND
M  V30 1 1 1 2
M  V30 2 2 2 3
M  V30 3 1 3 4
M  V30 4 1 4 5
M  V30 5 1 5 6
M  V30 6 2 6 7
M  V30 7 1 6 8
M  V30 8 1 8 9
M  V30 9 1 9 10
M  V30 10 2 10 11
M  V30 11 1 10 12
M  V30 12 1 12 13
M  V30 13 1 13 14
M  V30 14 2 14 15
M  V30 15 1 15 16
M  V30 16 2 16 17
M  V30 17 1 17 18
M  V30 18 1 18 19
M  V30 19 2 18 20
M  V30 20 1 20 21
M  V30 21 2 21 22
M  V30 22 1 22 23
M  V30 23 1 23 24
M  V30 24 1 24 25
M  V30 25 2 25 26
M  V30 26 1 26 27
M  V30 27 2 27 28
M  V30 28 1 28 29
M  V30 29 2 29 30
M  V30 30 2 4 31
M  V30 31 1 31 32
M  V30 32 1 32 2
M  V30 33 1 23 14
M  V30 34 1 30 25
M  V30 35 1 22 16
M  V30 36 1 1 33
M  V30 37 1 1 34
M  V30 38 1 1 35
M  V30 39 1 3 36
M  V30 40 1 5 37
M  V30 41 1 8 38
M  V30 42 1 8 39
M  V30 43 1 12 40
M  V30 44 1 12 41
M  V30 45 1 17 42
M  V30 46 1 20 43
M  V30 47 1 21 44
M  V30 48 1 24 45
M  V30 49 1 24 46
M  V30 50 1 26 47
M  V30 51 1 27 48
M  V30 52 1 28 49
M  V30 53 1 29 50
M  V30 54 1 30 51
M  V30 END BOND
M  V30 END CTAB
M  END
>  <Dataset>  (610) 
ChEMBL_Kinases

>  <Ligand_Instance>  (610) 
nan

>  <PDB_ID>  (610) 
nan

>  <Standardized_SMILES>  (610) 
Cc1cc(NC(=O)COC(=O)CSc2nc3cc(Cl)ccc3n2Cc2ccccc2)no1

>  <Name>  (610) 
nan

>  <Pocket>  (610) 
nan

>  <ATP_Site>  (610) 
nan

>  <Peripheral>  (610) 
nan

>  <Num_H_Atoms_ProtBoundConf>  (610) 
nan

>  <Num_Resolved_Atoms>  (610) 
nan

>  <Num_Not_Resolved_Atoms>  (610) 
nan

$$$$
CHEMBL1420841
     RDKit          3D

  0  0  0  0  0  0  0  0  0  0999 V3000
M  V30 BEGIN CTAB
M  V30 COUNTS 56 60 0 0 0
M  V30 BEGIN ATOM
M  V30 1 O -0.653829 -0.696841 2.818378 0
M  V30 2 C -0.214077 -0.810131 1.621760 0
M  V30 3 C 1.115796 -0.404141 1.191920 0
M  V30 4 O 1.780075 -0.808081 0.151906 0
M  V30 5 C 2.952461 -0.228974 0.087353 0
M  V30 6 C 3.947562 -0.383836 -0.851510 0
M  V30 7 C 5.100782 0.354109 -0.683167 0
M  V30 8 C 5.223875 1.205310 0.392326 0
M  V30 9 C 4.188152 1.310845 1.293368 0
M  V30 10 C 2.998804 0.589067 1.173264 0
M  V30 11 C 1.815627 0.516466 1.937659 0
M  V30 12 C 1.686199 1.370433 3.114611 0
M  V30 13 S 0.974834 2.945740 3.005438 0
M  V30 14 C -0.703266 3.253971 2.657174 0
M  V30 15 C -1.229614 2.958481 1.326567 0
M  V30 16 C -1.964756 1.912831 0.819041 0
M  V30 17 C -2.360625 1.785927 -0.491290 0
M  V30 18 C -2.020272 2.753024 -1.403508 0
M  V30 19 C -1.283239 3.832366 -0.966067 0
M  V30 20 C -0.911505 3.915968 0.349124 0
M  V30 21 N -1.175833 -1.382991 0.746811 0
M  V30 22 C -2.469515 -1.753911 1.273945 0
M  V30 23 C -3.008833 -3.042460 0.753218 0
M  V30 24 N -2.185448 -3.540327 -0.330935 0
M  V30 25 C -1.694310 -4.864732 -0.473280 0
M  V30 26 N -0.920732 -5.185502 -1.547297 0
M  V30 27 C -0.450787 -6.453759 -1.684352 0
M  V30 28 C -0.748846 -7.426074 -0.744012 0
M  V30 29 C -1.534950 -7.082346 0.339636 0
M  V30 30 N -1.990282 -5.799524 0.446226 0
M  V30 31 C -1.890899 -2.512708 -1.309958 0
M  V30 32 C -0.886967 -1.601162 -0.646268 0
M  V30 33 H 3.847587 -1.052348 -1.694858 0
M  V30 34 H 5.924425 0.287663 -1.374111 0
M  V30 35 H 6.134775 1.775527 0.507846 0
M  V30 36 H 4.320988 1.987225 2.121011 0
M  V30 37 H 2.717054 1.464266 3.605296 0
M  V30 38 H 1.167396 0.708049 3.910830 0
M  V30 39 H -0.890503 4.369616 2.818044 0
M  V30 40 H -1.416743 2.823550 3.455369 0
M  V30 41 H -2.207407 1.199067 1.603920 0
M  V30 42 H -2.937544 0.880920 -0.684393 0
M  V30 43 H -2.379218 2.554918 -2.402789 0
M  V30 44 H -1.032456 4.573928 -1.707967 0
M  V30 45 H -0.337517 4.806674 0.574664 0
M  V30 46 H -3.168601 -0.919312 1.064233 0
M  V30 47 H -2.453316 -1.820007 2.400202 0
M  V30 48 H -3.232437 -3.800941 1.528599 0
M  V30 49 H -4.010365 -2.834711 0.276386 0
M  V30 50 H 0.150402 -6.561318 -2.583667 0
M  V30 51 H -0.307825 -8.382274 -0.985691 0
M  V30 52 H -1.724592 -7.884285 1.024399 0
M  V30 53 H -1.431003 -3.014746 -2.189743 0
M  V30 54 H -2.824264 -1.980794 -1.558942 0
M  V30 55 H 0.103299 -2.101546 -0.807172 0
M  V30 56 H -0.874212 -0.612025 -1.146703 0
M  V30 END ATOM
M  V30 BEGIN BOND
M  V30 1 2 1 2
M  V30 2 1 2 3
M  V30 3 1 3 4
M  V30 4 1 4 5
M  V30 5 2 5 6
M  V30 6 1 6 7
M  V30 7 2 7 8
M  V30 8 1 8 9
M  V30 9 2 9 10
M  V30 10 1 10 11
M  V30 11 1 11 12
M  V30 12 1 12 13
M  V30 13 1 13 14
M  V30 14 1 14 15
M  V30 15 2 15 16
M  V30 16 1 16 17
M  V30 17 2 17 18
M  V30 18 1 18 19
M  V30 19 2 19 20
M  V30 20 1 2 21
M  V30 21 1 21 22
M  V30 22 1 22 23
M  V30 23 1 23 24
M  V30 24 1 24 25
M  V30 25 2 25 26
M  V30 26 1 26 27
M  V30 27 2 27 28
M  V30 28 1 28 29
M  V30 29 2 29 30
M  V30 30 1 24 31
M  V30 31 1 31 32
M  V30 32 2 11 3
M  V30 33 1 20 15
M  V30 34 1 32 21
M  V30 35 1 10 5
M  V30 36 1 30 25
M  V30 37 1 6 33
M  V30 38 1 7 34
M  V30 39 1 8 35
M  V30 40 1 9 36
M  V30 41 1 12 37
M  V30 42 1 12 38
M  V30 43 1 14 39
M  V30 44 1 14 40
M  V30 45 1 16 41
M  V30 46 1 17 42
M  V30 47 1 18 43
M  V30 48 1 19 44
M  V30 49 1 20 45
M  V30 50 1 22 46
M  V30 51 1 22 47
M  V30 52 1 23 48
M  V30 53 1 23 49
M  V30 54 1 27 50
M  V30 55 1 28 51
M  V30 56 1 29 52
M  V30 57 1 31 53
M  V30 58 1 31 54
M  V30 59 1 32 55
M  V30 60 1 32 56
M  V30 END BOND
M  V30 END CTAB
M  END
>  <Dataset>  (611) 
ChEMBL_Kinases

>  <Ligand_Instance>  (611) 
nan

>  <PDB_ID>  (611) 
nan

>  <Standardized_SMILES>  (611) 
O=C(c1oc2ccccc2c1CSCc1ccccc1)N1CCN(c2ncccn2)CC1

>  <Name>  (611) 
nan

>  <Pocket>  (611) 
nan

>  <ATP_Site>  (611) 
nan

>  <Peripheral>  (611) 
nan

>  <Num_H_Atoms_ProtBoundConf>  (611) 
nan

>  <Num_Resolved_Atoms>  (611) 
nan

>  <Num_Not_Resolved_Atoms>  (611) 
nan

$$$$
CHEMBL1420829
     RDKit          3D

  0  0  0  0  0  0  0  0  0  0999 V3000
M  V30 BEGIN CTAB
M  V30 COUNTS 47 49 0 0 0
M  V30 BEGIN ATOM
M  V30 1 C 7.394665 -2.976922 0.188169 0
M  V30 2 C 5.908874 -3.124717 0.015333 0
M  V30 3 C 5.397348 -4.399229 -0.122504 0
M  V30 4 C 4.046486 -4.624841 -0.285575 0
M  V30 5 N 3.187408 -3.563128 -0.312146 0
M  V30 6 C 3.681898 -2.297280 -0.176747 0
M  V30 7 N 2.827415 -1.141282 -0.197135 0
M  V30 8 C 2.304653 -0.703459 1.051302 0
M  V30 9 O 2.459425 -1.160576 2.214238 0
M  V30 10 C 1.420529 0.489946 1.043064 0
M  V30 11 C 0.948607 0.828711 2.443319 0
M  V30 12 C 0.061640 2.024693 2.437047 0
M  V30 13 O -1.094480 1.955180 1.691649 0
M  V30 14 C -2.170239 1.112175 1.795833 0
M  V30 15 C -2.478191 0.076086 2.649437 0
M  V30 16 C -3.651141 -0.637463 2.550652 0
M  V30 17 O -3.809769 -1.564411 3.397534 0
M  V30 18 N -4.555407 -0.343322 1.600036 0
M  V30 19 C -5.785308 -1.125876 1.531226 0
M  V30 20 C -4.307769 0.658484 0.739286 0
M  V30 21 C -5.289933 0.886180 -0.197499 0
M  V30 22 C -5.114474 1.896715 -1.118461 0
M  V30 23 C -3.966101 2.658628 -1.087512 0
M  V30 24 C -3.018562 2.383625 -0.126436 0
M  V30 25 C -3.125149 1.404688 0.810946 0
M  V30 26 C 5.017780 -2.072956 -0.015429 0
M  V30 27 H 7.958078 -3.717274 -0.381118 0
M  V30 28 H 7.613992 -1.919208 -0.083350 0
M  V30 29 H 7.617135 -3.039204 1.283809 0
M  V30 30 H 6.033514 -5.297983 -0.109979 0
M  V30 31 H 3.550868 -5.579360 -0.401166 0
M  V30 32 H 2.589555 -0.636627 -1.056102 0
M  V30 33 H 1.958211 1.333505 0.596047 0
M  V30 34 H 0.524753 0.271664 0.428575 0
M  V30 35 H 1.894477 1.135615 2.988629 0
M  V30 36 H 0.594341 -0.048799 2.990634 0
M  V30 37 H -0.154440 2.368627 3.472444 0
M  V30 38 H 0.674087 2.870871 2.002097 0
M  V30 39 H -1.723547 -0.097863 3.377142 0
M  V30 40 H -5.955662 -1.549318 0.503070 0
M  V30 41 H -6.674783 -0.521153 1.777440 0
M  V30 42 H -5.737036 -2.000684 2.190552 0
M  V30 43 H -6.203448 0.321721 -0.264833 0
M  V30 44 H -5.820941 2.161397 -1.896754 0
M  V30 45 H -3.781619 3.466709 -1.792430 0
M  V30 46 H -2.126133 2.991974 -0.119214 0
M  V30 47 H 5.468478 -1.098529 0.096477 0
M  V30 END ATOM
M  V30 BEGIN BOND
M  V30 1 1 1 2
M  V30 2 2 2 3
M  V30 3 1 3 4
M  V30 4 2 4 5
M  V30 5 1 5 6
M  V30 6 1 6 7
M  V30 7 1 7 8
M  V30 8 2 8 9
M  V30 9 1 8 10
M  V30 10 1 10 11
M  V30 11 1 11 12
M  V30 12 1 12 13
M  V30 13 1 13 14
M  V30 14 2 14 15
M  V30 15 1 15 16
M  V30 16 2 16 17
M  V30 17 1 16 18
M  V30 18 1 18 19
M  V30 19 1 18 20
M  V30 20 2 20 21
M  V30 21 1 21 22
M  V30 22 2 22 23
M  V30 23 1 23 24
M  V30 24 2 24 25
M  V30 25 2 6 26
M  V30 26 1 26 2
M  V30 27 1 25 14
M  V30 28 1 25 20
M  V30 29 1 1 27
M  V30 30 1 1 28
M  V30 31 1 1 29
M  V30 32 1 3 30
M  V30 33 1 4 31
M  V30 34 1 7 32
M  V30 35 1 10 33
M  V30 36 1 10 34
M  V30 37 1 11 35
M  V30 38 1 11 36
M  V30 39 1 12 37
M  V30 40 1 12 38
M  V30 41 1 15 39
M  V30 42 1 19 40
M  V30 43 1 19 41
M  V30 44 1 19 42
M  V30 45 1 21 43
M  V30 46 1 22 44
M  V30 47 1 23 45
M  V30 48 1 24 46
M  V30 49 1 26 47
M  V30 END BOND
M  V30 END CTAB
M  END
>  <Dataset>  (612) 
ChEMBL_Kinases

>  <Ligand_Instance>  (612) 
nan

>  <PDB_ID>  (612) 
nan

>  <Standardized_SMILES>  (612) 
Cc1ccnc(NC(=O)CCCOc2cc(=O)n(C)c3ccccc23)c1

>  <Name>  (612) 
nan

>  <Pocket>  (612) 
nan

>  <ATP_Site>  (612) 
nan

>  <Peripheral>  (612) 
nan

>  <Num_H_Atoms_ProtBoundConf>  (612) 
nan

>  <Num_Resolved_Atoms>  (612) 
nan

>  <Num_Not_Resolved_Atoms>  (612) 
nan

$$$$
CHEMBL1420828
     RDKit          3D

  0  0  0  0  0  0  0  0  0  0999 V3000
M  V30 BEGIN CTAB
M  V30 COUNTS 43 46 0 0 0
M  V30 BEGIN ATOM
M  V30 1 O 0.938712 -2.121681 2.245309 0
M  V30 2 C -0.296049 -2.434122 2.334247 0
M  V30 3 N -1.069091 -1.913119 1.259623 0
M  V30 4 C -0.378544 -1.140064 0.266325 0
M  V30 5 C 0.165778 -1.778269 -0.854331 0
M  V30 6 C 0.817886 -0.981290 -1.774351 0
M  V30 7 C 0.950844 0.384536 -1.636319 0
M  V30 8 C 1.637254 1.241966 -2.599169 0
M  V30 9 C 2.225907 0.768150 -3.752280 0
M  V30 10 C 2.878849 1.559135 -4.675163 0
M  V30 11 C 2.940126 2.928112 -4.411488 0
M  V30 12 N 3.474906 3.981767 -5.057676 0
M  V30 13 N 3.238427 5.070878 -4.351385 0
M  V30 14 C 2.551154 4.701524 -3.254573 0
M  V30 15 N 2.358321 3.369112 -3.279135 0
M  V30 16 N 1.745125 2.579373 -2.425122 0
M  V30 17 C 0.405392 0.991483 -0.522102 0
M  V30 18 C -0.263372 0.244596 0.440476 0
M  V30 19 C -1.005855 -3.218805 3.339595 0
M  V30 20 C -2.096745 -2.459406 4.046672 0
M  V30 21 C -1.601898 -1.243582 4.797938 0
M  V30 22 C -0.261066 -1.452037 5.454331 0
M  V30 23 C -0.130399 -2.950312 5.680612 0
M  V30 24 C -0.016576 -3.690922 4.382937 0
M  V30 25 H -2.102871 -2.091576 1.202839 0
M  V30 26 H 0.077594 -2.836267 -0.987239 0
M  V30 27 H 1.241964 -1.464154 -2.643510 0
M  V30 28 H 2.196930 -0.267174 -3.981896 0
M  V30 29 H 3.323532 1.148575 -5.560455 0
M  V30 30 H 2.196189 5.349563 -2.461157 0
M  V30 31 H 0.483582 2.068323 -0.366685 0
M  V30 32 H -0.708581 0.671216 1.331419 0
M  V30 33 H -1.498362 -4.062093 2.822716 0
M  V30 34 H -2.687648 -3.111538 4.714395 0
M  V30 35 H -2.845089 -2.049374 3.313349 0
M  V30 36 H -2.367463 -0.988000 5.562062 0
M  V30 37 H -1.524321 -0.361299 4.112820 0
M  V30 38 H 0.511575 -1.080498 4.753277 0
M  V30 39 H -0.136213 -0.881981 6.375940 0
M  V30 40 H 0.817348 -3.104055 6.246750 0
M  V30 41 H -0.957679 -3.329914 6.278982 0
M  V30 42 H -0.252485 -4.766351 4.563738 0
M  V30 43 H 0.997878 -3.659806 3.956475 0
M  V30 END ATOM
M  V30 BEGIN BOND
M  V30 1 2 1 2
M  V30 2 1 2 3
M  V30 3 1 3 4
M  V30 4 2 4 5
M  V30 5 1 5 6
M  V30 6 2 6 7
M  V30 7 1 7 8
M  V30 8 1 8 9
M  V30 9 2 9 10
M  V30 10 1 10 11
M  V30 11 2 11 12
M  V30 12 1 12 13
M  V30 13 2 13 14
M  V30 14 1 14 15
M  V30 15 1 15 16
M  V30 16 1 7 17
M  V30 17 2 17 18
M  V30 18 1 2 19
M  V30 19 1 19 20
M  V30 20 1 20 21
M  V30 21 1 21 22
M  V30 22 1 22 23
M  V30 23 1 23 24
M  V30 24 1 18 4
M  V30 25 1 24 19
M  V30 26 2 16 8
M  V30 27 1 15 11
M  V30 28 1 3 25
M  V30 29 1 5 26
M  V30 30 1 6 27
M  V30 31 1 9 28
M  V30 32 1 10 29
M  V30 33 1 14 30
M  V30 34 1 17 31
M  V30 35 1 18 32
M  V30 36 1 19 33
M  V30 37 1 20 34
M  V30 38 1 20 35
M  V30 39 1 21 36
M  V30 40 1 21 37
M  V30 41 1 22 38
M  V30 42 1 22 39
M  V30 43 1 23 40
M  V30 44 1 23 41
M  V30 45 1 24 42
M  V30 46 1 24 43
M  V30 END BOND
M  V30 END CTAB
M  END
>  <Dataset>  (613) 
ChEMBL_Kinases

>  <Ligand_Instance>  (613) 
nan

>  <PDB_ID>  (613) 
nan

>  <Standardized_SMILES>  (613) 
O=C(Nc1ccc(-c2ccc3nncn3n2)cc1)C1CCCCC1

>  <Name>  (613) 
nan

>  <Pocket>  (613) 
nan

>  <ATP_Site>  (613) 
nan

>  <Peripheral>  (613) 
nan

>  <Num_H_Atoms_ProtBoundConf>  (613) 
nan

>  <Num_Resolved_Atoms>  (613) 
nan

>  <Num_Not_Resolved_Atoms>  (613) 
nan

$$$$
CHEMBL1420689
     RDKit          3D

  0  0  0  0  0  0  0  0  0  0999 V3000
M  V30 BEGIN CTAB
M  V30 COUNTS 46 50 0 0 0
M  V30 BEGIN ATOM
M  V30 1 C -2.465085 -3.205016 5.182584 0
M  V30 2 C -2.313087 -2.252871 4.049735 0
M  V30 3 N -1.865333 -0.996113 4.239972 0
M  V30 4 C -1.725515 -0.126614 3.215521 0
M  V30 5 S -1.128220 1.468183 3.685586 0
M  V30 6 C -0.931316 2.601772 2.281747 0
M  V30 7 C 0.178316 2.025580 1.468764 0
M  V30 8 O 0.796332 0.959632 1.815501 0
M  V30 9 N 0.699523 2.537339 0.246598 0
M  V30 10 C 1.749758 1.625402 -0.133722 0
M  V30 11 C 1.252206 0.606383 -0.926471 0
M  V30 12 C 2.112546 -0.379275 -1.393940 0
M  V30 13 C 3.441598 -0.296642 -1.042062 0
M  V30 14 C 3.902228 0.735416 -0.248822 0
M  V30 15 C 3.072321 1.727023 0.229352 0
M  V30 16 O 5.249084 0.781544 0.083049 0
M  V30 17 C 5.999666 -0.417545 0.317974 0
M  V30 18 C 5.488632 -1.559227 -0.523648 0
M  V30 19 O 4.454635 -1.169417 -1.399613 0
M  V30 20 C -2.055384 -0.554944 1.947378 0
M  V30 21 O -1.993601 0.125523 0.827563 0
M  V30 22 C -2.393795 -0.630377 -0.175842 0
M  V30 23 C -2.546928 -0.485594 -1.542932 0
M  V30 24 C -3.010157 -1.534741 -2.311130 0
M  V30 25 C -3.339290 -2.760307 -1.769314 0
M  V30 26 C -3.195702 -2.934018 -0.401333 0
M  V30 27 C -2.727508 -1.871532 0.369880 0
M  V30 28 C -2.519635 -1.851809 1.734932 0
M  V30 29 N -2.639349 -2.679523 2.799816 0
M  V30 30 H -1.968789 -2.746750 6.079059 0
M  V30 31 H -3.529206 -3.294621 5.414671 0
M  V30 32 H -1.964905 -4.171562 4.980557 0
M  V30 33 H -1.887226 2.627472 1.730894 0
M  V30 34 H -0.681337 3.596420 2.701864 0
M  V30 35 H 0.233009 3.428138 -0.105284 0
M  V30 36 H 0.229817 0.476290 -1.241505 0
M  V30 37 H 1.839104 -1.220722 -2.017668 0
M  V30 38 H 3.351436 2.543154 0.837251 0
M  V30 39 H 7.073221 -0.241920 0.225388 0
M  V30 40 H 5.789340 -0.689599 1.377648 0
M  V30 41 H 5.123418 -2.422668 0.077640 0
M  V30 42 H 6.321209 -1.936032 -1.150108 0
M  V30 43 H -2.293833 0.471569 -1.992169 0
M  V30 44 H -3.140707 -1.453356 -3.381679 0
M  V30 45 H -3.706370 -3.615799 -2.323287 0
M  V30 46 H -3.446822 -3.884715 0.047505 0
M  V30 END ATOM
M  V30 BEGIN BOND
M  V30 1 1 1 2
M  V30 2 2 2 3
M  V30 3 1 3 4
M  V30 4 1 4 5
M  V30 5 1 5 6
M  V30 6 1 6 7
M  V30 7 2 7 8
M  V30 8 1 7 9
M  V30 9 1 9 10
M  V30 10 2 10 11
M  V30 11 1 11 12
M  V30 12 2 12 13
M  V30 13 1 13 14
M  V30 14 2 14 15
M  V30 15 1 14 16
M  V30 16 1 16 17
M  V30 17 1 17 18
M  V30 18 1 18 19
M  V30 19 2 4 20
M  V30 20 1 20 21
M  V30 21 1 21 22
M  V30 22 2 22 23
M  V30 23 1 23 24
M  V30 24 2 24 25
M  V30 25 1 25 26
M  V30 26 2 26 27
M  V30 27 1 27 28
M  V30 28 2 28 29
M  V30 29 1 29 2
M  V30 30 1 15 10
M  V30 31 1 28 20
M  V30 32 1 19 13
M  V30 33 1 27 22
M  V30 34 1 1 30
M  V30 35 1 1 31
M  V30 36 1 1 32
M  V30 37 1 6 33
M  V30 38 1 6 34
M  V30 39 1 9 35
M  V30 40 1 11 36
M  V30 41 1 12 37
M  V30 42 1 15 38
M  V30 43 1 17 39
M  V30 44 1 17 40
M  V30 45 1 18 41
M  V30 46 1 18 42
M  V30 47 1 23 43
M  V30 48 1 24 44
M  V30 49 1 25 45
M  V30 50 1 26 46
M  V30 END BOND
M  V30 END CTAB
M  END
>  <Dataset>  (614) 
ChEMBL_Kinases

>  <Ligand_Instance>  (614) 
nan

>  <PDB_ID>  (614) 
nan

>  <Standardized_SMILES>  (614) 
Cc1nc(SCC(=O)Nc2ccc3c(c2)OCCO3)c2oc3ccccc3c2n1

>  <Name>  (614) 
nan

>  <Pocket>  (614) 
nan

>  <ATP_Site>  (614) 
nan

>  <Peripheral>  (614) 
nan

>  <Num_H_Atoms_ProtBoundConf>  (614) 
nan

>  <Num_Resolved_Atoms>  (614) 
nan

>  <Num_Not_Resolved_Atoms>  (614) 
nan

$$$$
CHEMBL1420605
     RDKit          3D

  0  0  0  0  0  0  0  0  0  0999 V3000
M  V30 BEGIN CTAB
M  V30 COUNTS 57 60 0 0 0
M  V30 BEGIN ATOM
M  V30 1 C 2.368748 -4.640074 -2.626265 0
M  V30 2 C 1.175324 -4.671640 -1.776530 0
M  V30 3 C 0.910718 -3.984750 -0.532212 0
M  V30 4 C 1.721181 -3.202604 0.095217 0
M  V30 5 S 3.395252 -2.788328 -0.453675 0
M  V30 6 C 3.430113 -1.207319 0.434782 0
M  V30 7 S 4.297037 0.117689 0.128578 0
M  V30 8 N 2.499384 -1.398919 1.490831 0
M  V30 9 C 2.500921 -0.537842 2.686009 0
M  V30 10 C 1.611995 0.627241 2.483406 0
M  V30 11 O 1.557748 -0.067895 1.407884 0
M  V30 12 N 0.849193 1.815729 2.571830 0
M  V30 13 C 0.754476 2.737784 3.651657 0
M  V30 14 C -0.656889 3.117037 4.028970 0
M  V30 15 N -1.583576 3.157799 2.941486 0
M  V30 16 C -2.603329 4.143427 2.845617 0
M  V30 17 C -3.391357 4.352413 1.734987 0
M  V30 18 C -4.384836 5.303423 1.652204 0
M  V30 19 C -4.645257 6.116888 2.711884 0
M  V30 20 C -3.878338 5.943373 3.850124 0
M  V30 21 C -2.894890 4.982050 3.893937 0
M  V30 22 C -1.411012 2.111835 1.958160 0
M  V30 23 C 0.023586 2.215446 1.451752 0
M  V30 24 C 1.561086 -2.457071 1.356348 0
M  V30 25 O 0.670710 -2.769149 2.187864 0
M  V30 26 C 0.183754 -5.443129 -2.198789 0
M  V30 27 C 0.086407 -6.277322 -3.382968 0
M  V30 28 C -1.041325 -6.326011 -4.193665 0
M  V30 29 C -1.188283 -7.109084 -5.309650 0
M  V30 30 C -0.116900 -7.932184 -5.670130 0
M  V30 31 C 1.026180 -7.926127 -4.904214 0
M  V30 32 C 1.118850 -7.117860 -3.791360 0
M  V30 33 H 2.112044 -4.880661 -3.705669 0
M  V30 34 H 3.128597 -5.339820 -2.226527 0
M  V30 35 H 2.872020 -3.656549 -2.713592 0
M  V30 36 H -0.033908 -4.076802 -0.003956 0
M  V30 37 H 2.138265 -1.119674 3.567593 0
M  V30 38 H 3.508755 -0.190748 2.913324 0
M  V30 39 H 1.340685 3.657729 3.382713 0
M  V30 40 H 1.252669 2.352243 4.564781 0
M  V30 41 H -1.037233 2.469880 4.849176 0
M  V30 42 H -0.605844 4.155687 4.470239 0
M  V30 43 H -3.257448 3.761625 0.854127 0
M  V30 44 H -4.985410 5.442066 0.765245 0
M  V30 45 H -5.416811 6.858195 2.653299 0
M  V30 46 H -4.121567 6.619607 4.680339 0
M  V30 47 H -2.394790 4.965067 4.831977 0
M  V30 48 H -1.428068 1.125433 2.515568 0
M  V30 49 H -2.137599 2.125178 1.149115 0
M  V30 50 H 0.180662 1.561630 0.568441 0
M  V30 51 H 0.213866 3.270822 1.222267 0
M  V30 52 H -0.760172 -5.545374 -1.646103 0
M  V30 53 H -1.840913 -5.651682 -3.846439 0
M  V30 54 H -2.148260 -7.007699 -5.814622 0
M  V30 55 H -0.311694 -8.519145 -6.561605 0
M  V30 56 H 1.811864 -8.583343 -5.239366 0
M  V30 57 H 2.035631 -7.192240 -3.263302 0
M  V30 END ATOM
M  V30 BEGIN BOND
M  V30 1 1 1 2
M  V30 2 1 2 3
M  V30 3 2 3 4
M  V30 4 1 4 5
M  V30 5 1 5 6
M  V30 6 2 6 7
M  V30 7 1 6 8
M  V30 8 1 8 9
M  V30 9 1 9 10
M  V30 10 2 10 11
M  V30 11 1 10 12
M  V30 12 1 12 13
M  V30 13 1 13 14
M  V30 14 1 14 15
M  V30 15 1 15 16
M  V30 16 2 16 17
M  V30 17 1 17 18
M  V30 18 2 18 19
M  V30 19 1 19 20
M  V30 20 2 20 21
M  V30 21 1 15 22
M  V30 22 1 22 23
M  V30 23 1 8 24
M  V30 24 2 24 25
M  V30 25 2 2 26
M  V30 26 1 26 27
M  V30 27 2 27 28
M  V30 28 1 28 29
M  V30 29 2 29 30
M  V30 30 1 30 31
M  V30 31 2 31 32
M  V30 32 1 24 4
M  V30 33 1 32 27
M  V30 34 1 23 12
M  V30 35 1 21 16
M  V30 36 1 1 33
M  V30 37 1 1 34
M  V30 38 1 1 35
M  V30 39 1 3 36
M  V30 40 1 9 37
M  V30 41 1 9 38
M  V30 42 1 13 39
M  V30 43 1 13 40
M  V30 44 1 14 41
M  V30 45 1 14 42
M  V30 46 1 17 43
M  V30 47 1 18 44
M  V30 48 1 19 45
M  V30 49 1 20 46
M  V30 50 1 21 47
M  V30 51 1 22 48
M  V30 52 1 22 49
M  V30 53 1 23 50
M  V30 54 1 23 51
M  V30 55 1 26 52
M  V30 56 1 28 53
M  V30 57 1 29 54
M  V30 58 1 30 55
M  V30 59 1 31 56
M  V30 60 1 32 57
M  V30 END BOND
M  V30 END CTAB
M  END
>  <Dataset>  (615) 
ChEMBL_Kinases

>  <Ligand_Instance>  (615) 
nan

>  <PDB_ID>  (615) 
nan

>  <Standardized_SMILES>  (615) 
CC(/C=C1\SC(=S)N(CC(=O)N2CCN(c3ccccc3)CC2)C1=O)=C\c1ccccc1

>  <Name>  (615) 
nan

>  <Pocket>  (615) 
nan

>  <ATP_Site>  (615) 
nan

>  <Peripheral>  (615) 
nan

>  <Num_H_Atoms_ProtBoundConf>  (615) 
nan

>  <Num_Resolved_Atoms>  (615) 
nan

>  <Num_Not_Resolved_Atoms>  (615) 
nan

$$$$
CHEMBL1420552
     RDKit          3D

  0  0  0  0  0  0  0  0  0  0999 V3000
M  V30 BEGIN CTAB
M  V30 COUNTS 43 45 0 0 0
M  V30 BEGIN ATOM
M  V30 1 C -1.669528 -4.343342 1.124327 0
M  V30 2 C -1.169662 -2.969000 1.408282 0
M  V30 3 N -0.293291 -2.407881 0.478886 0
M  V30 4 C -0.754160 -2.062920 -0.810111 0
M  V30 5 C -0.212016 -0.688864 -1.147745 0
M  V30 6 N 1.180342 -0.657038 -0.770519 0
M  V30 7 C 2.029913 0.480476 -0.573596 0
M  V30 8 C 2.729006 0.960617 -1.668728 0
M  V30 9 Cl 2.593435 0.233080 -3.267137 0
M  V30 10 C 3.558112 2.050891 -1.483708 0
M  V30 11 C 3.735719 2.697634 -0.266507 0
M  V30 12 C 3.032511 2.207641 0.814330 0
M  V30 13 C 2.206431 1.122061 0.631448 0
M  V30 14 N 1.491014 0.644033 1.790936 0
M  V30 15 C 0.263023 1.390052 1.816618 0
M  V30 16 O 0.186777 2.211775 0.845921 0
M  V30 17 C -0.757590 1.194390 2.861350 0
M  V30 18 C -0.829196 0.377393 3.957691 0
M  V30 19 C -2.027859 0.623661 4.579376 0
M  V30 20 C -2.640096 1.589025 3.827655 0
M  V30 21 Br -4.358100 2.384661 4.152587 0
M  V30 22 O -1.851207 1.894063 2.824186 0
M  V30 23 C 1.785602 -1.952985 -0.572289 0
M  V30 24 C 1.098206 -2.691917 0.583414 0
M  V30 25 H -1.865582 -4.857045 2.087790 0
M  V30 26 H -2.663429 -4.343106 0.594742 0
M  V30 27 H -0.922192 -4.947430 0.582311 0
M  V30 28 H -0.689980 -2.963403 2.410735 0
M  V30 29 H -2.054249 -2.278076 1.528629 0
M  V30 30 H -0.390130 -2.791863 -1.569043 0
M  V30 31 H -1.863217 -2.040791 -0.820834 0
M  V30 32 H -0.368873 -0.439361 -2.216769 0
M  V30 33 H -0.766252 0.044000 -0.531628 0
M  V30 34 H 4.104093 2.423604 -2.342980 0
M  V30 35 H 4.404397 3.558011 -0.175916 0
M  V30 36 H 3.116644 2.657370 1.794163 0
M  V30 37 H 1.656205 -0.064695 2.548540 0
M  V30 38 H -0.034807 -0.296020 4.199441 0
M  V30 39 H -2.390408 0.140066 5.476403 0
M  V30 40 H 2.863203 -1.888584 -0.385149 0
M  V30 41 H 1.665156 -2.565116 -1.510272 0
M  V30 42 H 1.360165 -3.758380 0.560918 0
M  V30 43 H 1.486836 -2.256064 1.521041 0
M  V30 END ATOM
M  V30 BEGIN BOND
M  V30 1 1 1 2
M  V30 2 1 2 3
M  V30 3 1 3 4
M  V30 4 1 4 5
M  V30 5 1 5 6
M  V30 6 1 6 7
M  V30 7 2 7 8
M  V30 8 1 8 9
M  V30 9 1 8 10
M  V30 10 2 10 11
M  V30 11 1 11 12
M  V30 12 2 12 13
M  V30 13 1 13 14
M  V30 14 1 14 15
M  V30 15 2 15 16
M  V30 16 1 15 17
M  V30 17 2 17 18
M  V30 18 1 18 19
M  V30 19 2 19 20
M  V30 20 1 20 21
M  V30 21 1 20 22
M  V30 22 1 6 23
M  V30 23 1 23 24
M  V30 24 1 24 3
M  V30 25 1 13 7
M  V30 26 1 22 17
M  V30 27 1 1 25
M  V30 28 1 1 26
M  V30 29 1 1 27
M  V30 30 1 2 28
M  V30 31 1 2 29
M  V30 32 1 4 30
M  V30 33 1 4 31
M  V30 34 1 5 32
M  V30 35 1 5 33
M  V30 36 1 10 34
M  V30 37 1 11 35
M  V30 38 1 12 36
M  V30 39 1 14 37
M  V30 40 1 18 38
M  V30 41 1 19 39
M  V30 42 1 23 40
M  V30 43 1 23 41
M  V30 44 1 24 42
M  V30 45 1 24 43
M  V30 END BOND
M  V30 END CTAB
M  END
>  <Dataset>  (616) 
ChEMBL_Kinases

>  <Ligand_Instance>  (616) 
nan

>  <PDB_ID>  (616) 
nan

>  <Standardized_SMILES>  (616) 
CCN1CCN(c2c(Cl)cccc2NC(=O)c2ccc(Br)o2)CC1

>  <Name>  (616) 
nan

>  <Pocket>  (616) 
nan

>  <ATP_Site>  (616) 
nan

>  <Peripheral>  (616) 
nan

>  <Num_H_Atoms_ProtBoundConf>  (616) 
nan

>  <Num_Resolved_Atoms>  (616) 
nan

>  <Num_Not_Resolved_Atoms>  (616) 
nan

$$$$
CHEMBL1420125
     RDKit          3D

  0  0  0  0  0  0  0  0  0  0999 V3000
M  V30 BEGIN CTAB
M  V30 COUNTS 34 35 0 0 0
M  V30 BEGIN ATOM
M  V30 1 C -1.125608 -4.585695 3.649187 0
M  V30 2 C 0.273179 -4.541755 3.068087 0
M  V30 3 O 0.307302 -3.554703 2.082296 0
M  V30 4 C 1.377212 -3.195522 1.316979 0
M  V30 5 O 2.459995 -3.807960 1.504158 0
M  V30 6 C 1.350175 -2.145125 0.292300 0
M  V30 7 S 2.782858 -1.778764 -0.619575 0
M  V30 8 C 1.940479 -0.441779 -1.613481 0
M  V30 9 S 2.721145 0.412590 -2.765300 0
M  V30 10 N 0.645714 -0.436161 -1.120735 0
M  V30 11 C -0.294773 0.509905 -1.689339 0
M  V30 12 C -0.307266 1.810271 -0.972351 0
M  V30 13 C 0.462420 2.897124 -1.320093 0
M  V30 14 C 0.471508 4.109764 -0.674287 0
M  V30 15 C -0.342576 4.287824 0.412337 0
M  V30 16 C -1.146424 3.247152 0.826271 0
M  V30 17 C -1.104731 2.074633 0.140510 0
M  V30 18 C 0.391568 -1.319806 -0.152597 0
M  V30 19 C -0.940771 -1.461817 0.488629 0
M  V30 20 H -1.740417 -5.401584 3.207262 0
M  V30 21 H -1.107774 -4.648738 4.758960 0
M  V30 22 H -1.648877 -3.633661 3.425687 0
M  V30 23 H 0.541989 -5.544811 2.643820 0
M  V30 24 H 0.973505 -4.374439 3.899831 0
M  V30 25 H -0.038152 0.725093 -2.749534 0
M  V30 26 H -1.318000 0.068733 -1.658442 0
M  V30 27 H 1.127075 2.839854 -2.166598 0
M  V30 28 H 1.096666 4.937153 -0.986485 0
M  V30 29 H -0.357389 5.225277 0.938212 0
M  V30 30 H -1.780211 3.407251 1.683749 0
M  V30 31 H -1.762665 1.307630 0.521819 0
M  V30 32 H -1.773644 -1.006233 -0.036700 0
M  V30 33 H -1.217638 -2.544178 0.621184 0
M  V30 34 H -0.917483 -0.981010 1.502480 0
M  V30 END ATOM
M  V30 BEGIN BOND
M  V30 1 1 1 2
M  V30 2 1 2 3
M  V30 3 1 3 4
M  V30 4 2 4 5
M  V30 5 1 4 6
M  V30 6 1 6 7
M  V30 7 1 7 8
M  V30 8 2 8 9
M  V30 9 1 8 10
M  V30 10 1 10 11
M  V30 11 1 11 12
M  V30 12 2 12 13
M  V30 13 1 13 14
M  V30 14 2 14 15
M  V30 15 1 15 16
M  V30 16 2 16 17
M  V30 17 1 10 18
M  V30 18 1 18 19
M  V30 19 2 18 6
M  V30 20 1 17 12
M  V30 21 1 1 20
M  V30 22 1 1 21
M  V30 23 1 1 22
M  V30 24 1 2 23
M  V30 25 1 2 24
M  V30 26 1 11 25
M  V30 27 1 11 26
M  V30 28 1 13 27
M  V30 29 1 14 28
M  V30 30 1 15 29
M  V30 31 1 16 30
M  V30 32 1 17 31
M  V30 33 1 19 32
M  V30 34 1 19 33
M  V30 35 1 19 34
M  V30 END BOND
M  V30 END CTAB
M  END
>  <Dataset>  (617) 
ChEMBL_Kinases

>  <Ligand_Instance>  (617) 
nan

>  <PDB_ID>  (617) 
nan

>  <Standardized_SMILES>  (617) 
CCOC(=O)c1sc(=S)n(Cc2ccccc2)c1C

>  <Name>  (617) 
nan

>  <Pocket>  (617) 
nan

>  <ATP_Site>  (617) 
nan

>  <Peripheral>  (617) 
nan

>  <Num_H_Atoms_ProtBoundConf>  (617) 
nan

>  <Num_Resolved_Atoms>  (617) 
nan

>  <Num_Not_Resolved_Atoms>  (617) 
nan

$$$$
CHEMBL1419934
     RDKit          3D

  0  0  0  0  0  0  0  0  0  0999 V3000
M  V30 BEGIN CTAB
M  V30 COUNTS 40 41 0 0 0
M  V30 BEGIN ATOM
M  V30 1 C -2.776671 -4.868897 3.802676 0
M  V30 2 O -2.825629 -3.546542 3.253395 0
M  V30 3 C -1.771341 -3.155849 2.437367 0
M  V30 4 C -0.706819 -4.001688 2.156713 0
M  V30 5 C 0.348709 -3.666590 1.364283 0
M  V30 6 C 0.342391 -2.404269 0.815222 0
M  V30 7 C 1.204738 -1.688329 -0.025864 0
M  V30 8 C 2.492227 -2.219771 -0.580645 0
M  V30 9 C 0.644750 -0.445348 -0.227781 0
M  V30 10 C 1.231773 0.607129 -1.047859 0
M  V30 11 O 2.314419 0.332927 -1.590018 0
M  V30 12 N 0.646556 1.878571 -1.246781 0
M  V30 13 C 1.127617 2.977521 -2.019693 0
M  V30 14 C 2.440125 3.547357 -1.621170 0
M  V30 15 C 2.403271 4.250421 -0.280306 0
M  V30 16 O 3.485703 2.652315 -1.680425 0
M  V30 17 O -0.500602 -0.381338 0.444777 0
M  V30 18 C -0.701672 -1.517813 1.065570 0
M  V30 19 C -1.770128 -1.885290 1.880089 0
M  V30 20 O -2.841622 -1.048565 2.168994 0
M  V30 21 C -2.730678 -0.215709 3.308836 0
M  V30 22 H -2.885251 -5.573959 2.973164 0
M  V30 23 H -1.843224 -4.996828 4.401801 0
M  V30 24 H -3.623311 -5.003566 4.520552 0
M  V30 25 H -0.698976 -4.999889 2.589159 0
M  V30 26 H 1.183567 -4.306072 1.133726 0
M  V30 27 H 2.524818 -3.313887 -0.417791 0
M  V30 28 H 2.612479 -1.984045 -1.662257 0
M  V30 29 H 3.308066 -1.796057 0.047868 0
M  V30 30 H -0.277056 1.956543 -0.718199 0
M  V30 31 H 1.208688 2.727855 -3.113148 0
M  V30 32 H 0.373169 3.787184 -1.985138 0
M  V30 33 H 2.685568 4.354638 -2.361556 0
M  V30 34 H 1.728679 5.111639 -0.346084 0
M  V30 35 H 3.455866 4.629494 -0.129889 0
M  V30 36 H 2.195510 3.595865 0.567174 0
M  V30 37 H 4.138460 2.766586 -0.964826 0
M  V30 38 H -3.708390 0.173491 3.647381 0
M  V30 39 H -2.206709 -0.805222 4.088136 0
M  V30 40 H -2.025590 0.627544 3.058376 0
M  V30 END ATOM
M  V30 BEGIN BOND
M  V30 1 1 1 2
M  V30 2 1 2 3
M  V30 3 2 3 4
M  V30 4 1 4 5
M  V30 5 2 5 6
M  V30 6 1 6 7
M  V30 7 1 7 8
M  V30 8 2 7 9
M  V30 9 1 9 10
M  V30 10 2 10 11
M  V30 11 1 10 12
M  V30 12 1 12 13
M  V30 13 1 13 14
M  V30 14 1 14 15
M  V30 15 1 14 16
M  V30 16 1 9 17
M  V30 17 1 17 18
M  V30 18 2 18 19
M  V30 19 1 19 20
M  V30 20 1 20 21
M  V30 21 1 19 3
M  V30 22 1 18 6
M  V30 23 1 1 22
M  V30 24 1 1 23
M  V30 25 1 1 24
M  V30 26 1 4 25
M  V30 27 1 5 26
M  V30 28 1 8 27
M  V30 29 1 8 28
M  V30 30 1 8 29
M  V30 31 1 12 30
M  V30 32 1 13 31
M  V30 33 1 13 32
M  V30 34 1 14 33
M  V30 35 1 15 34
M  V30 36 1 15 35
M  V30 37 1 15 36
M  V30 38 1 16 37
M  V30 39 1 21 38
M  V30 40 1 21 39
M  V30 41 1 21 40
M  V30 END BOND
M  V30 END CTAB
M  END
>  <Dataset>  (618) 
ChEMBL_Kinases

>  <Ligand_Instance>  (618) 
nan

>  <PDB_ID>  (618) 
nan

>  <Standardized_SMILES>  (618) 
COc1ccc2c(C)c(C(=O)NCC(C)O)oc2c1OC

>  <Name>  (618) 
nan

>  <Pocket>  (618) 
nan

>  <ATP_Site>  (618) 
nan

>  <Peripheral>  (618) 
nan

>  <Num_H_Atoms_ProtBoundConf>  (618) 
nan

>  <Num_Resolved_Atoms>  (618) 
nan

>  <Num_Not_Resolved_Atoms>  (618) 
nan

$$$$
CHEMBL1419933
     RDKit          3D

  0  0  0  0  0  0  0  0  0  0999 V3000
M  V30 BEGIN CTAB
M  V30 COUNTS 40 42 0 0 0
M  V30 BEGIN ATOM
M  V30 1 C -0.321344 -1.875569 3.671470 0
M  V30 2 N 0.549331 -1.617150 2.569648 0
M  V30 3 C 0.714482 -2.752261 1.706394 0
M  V30 4 C 1.266092 -2.385616 0.357031 0
M  V30 5 N 1.942706 -1.102107 0.455138 0
M  V30 6 C 2.028705 0.053172 -0.406170 0
M  V30 7 C 3.305357 0.321074 -0.787879 0
M  V30 8 C 3.604148 1.384739 -1.614485 0
M  V30 9 C 2.560729 2.186137 -2.054062 0
M  V30 10 C 1.290275 1.858801 -1.629435 0
M  V30 11 C 0.951776 0.809677 -0.807772 0
M  V30 12 N -0.322896 0.458681 -0.364415 0
M  V30 13 C -1.585072 1.051133 -0.620448 0
M  V30 14 O -1.608763 2.060038 -1.363051 0
M  V30 15 C -2.832642 0.570138 -0.084843 0
M  V30 16 C -2.965373 -0.536530 0.752590 0
M  V30 17 C -4.300578 -0.698246 1.064740 0
M  V30 18 C -4.918946 0.336987 0.388460 0
M  V30 19 Br -6.798751 0.740468 0.361250 0
M  V30 20 O -4.033124 1.056409 -0.271254 0
M  V30 21 C 2.685940 -0.987414 1.698604 0
M  V30 22 C 1.782683 -0.982617 2.914283 0
M  V30 23 H -0.013537 -1.395992 4.616833 0
M  V30 24 H -1.369035 -1.562902 3.421801 0
M  V30 25 H -0.346064 -2.976582 3.841972 0
M  V30 26 H -0.303246 -3.223335 1.603661 0
M  V30 27 H 1.354818 -3.503797 2.241823 0
M  V30 28 H 2.091349 -3.124746 0.132456 0
M  V30 29 H 0.531337 -2.438024 -0.467330 0
M  V30 30 H 4.174360 -0.242932 -0.497978 0
M  V30 31 H 4.605666 1.629650 -1.939537 0
M  V30 32 H 2.758289 3.023713 -2.699547 0
M  V30 33 H 0.518049 2.511119 -1.998327 0
M  V30 34 H -0.430819 -0.374422 0.267848 0
M  V30 35 H -2.187978 -1.208750 1.137517 0
M  V30 36 H -4.837550 -1.410130 1.668558 0
M  V30 37 H 3.351287 -1.899879 1.741678 0
M  V30 38 H 3.400808 -0.140197 1.710535 0
M  V30 39 H 2.308543 -1.516553 3.747047 0
M  V30 40 H 1.602466 0.055369 3.241023 0
M  V30 END ATOM
M  V30 BEGIN BOND
M  V30 1 1 1 2
M  V30 2 1 2 3
M  V30 3 1 3 4
M  V30 4 1 4 5
M  V30 5 1 5 6
M  V30 6 2 6 7
M  V30 7 1 7 8
M  V30 8 2 8 9
M  V30 9 1 9 10
M  V30 10 2 10 11
M  V30 11 1 11 12
M  V30 12 1 12 13
M  V30 13 2 13 14
M  V30 14 1 13 15
M  V30 15 2 15 16
M  V30 16 1 16 17
M  V30 17 2 17 18
M  V30 18 1 18 19
M  V30 19 1 18 20
M  V30 20 1 5 21
M  V30 21 1 21 22
M  V30 22 1 22 2
M  V30 23 1 11 6
M  V30 24 1 20 15
M  V30 25 1 1 23
M  V30 26 1 1 24
M  V30 27 1 1 25
M  V30 28 1 3 26
M  V30 29 1 3 27
M  V30 30 1 4 28
M  V30 31 1 4 29
M  V30 32 1 7 30
M  V30 33 1 8 31
M  V30 34 1 9 32
M  V30 35 1 10 33
M  V30 36 1 12 34
M  V30 37 1 16 35
M  V30 38 1 17 36
M  V30 39 1 21 37
M  V30 40 1 21 38
M  V30 41 1 22 39
M  V30 42 1 22 40
M  V30 END BOND
M  V30 END CTAB
M  END
>  <Dataset>  (619) 
ChEMBL_Kinases

>  <Ligand_Instance>  (619) 
nan

>  <PDB_ID>  (619) 
nan

>  <Standardized_SMILES>  (619) 
CN1CCN(c2ccccc2NC(=O)c2ccc(Br)o2)CC1

>  <Name>  (619) 
nan

>  <Pocket>  (619) 
nan

>  <ATP_Site>  (619) 
nan

>  <Peripheral>  (619) 
nan

>  <Num_H_Atoms_ProtBoundConf>  (619) 
nan

>  <Num_Resolved_Atoms>  (619) 
nan

>  <Num_Not_Resolved_Atoms>  (619) 
nan

$$$$
CHEMBL1424118
     RDKit          3D

  0  0  0  0  0  0  0  0  0  0999 V3000
M  V30 BEGIN CTAB
M  V30 COUNTS 32 34 0 0 0
M  V30 BEGIN ATOM
M  V30 1 N -2.085867 -2.938974 4.108853 0
M  V30 2 C -1.059534 -3.071329 3.130126 0
M  V30 3 N 0.149952 -3.657402 3.351137 0
M  V30 4 C 1.050313 -3.721564 2.326335 0
M  V30 5 C 2.373158 -4.361841 2.567116 0
M  V30 6 Cl 2.373673 -6.080057 2.232290 0
M  V30 7 N 0.715618 -3.206148 1.136192 0
M  V30 8 C -0.470655 -2.620447 0.884680 0
M  V30 9 N -0.847683 -2.065734 -0.375153 0
M  V30 10 C -0.604368 -0.714469 -0.760658 0
M  V30 11 C -0.998642 -0.222263 -2.001459 0
M  V30 12 C -0.719033 1.108549 -2.292004 0
M  V30 13 C -0.067224 1.896303 -1.356629 0
M  V30 14 C 0.201812 3.226350 -1.671480 0
M  V30 15 C 0.851452 4.040077 -0.759737 0
M  V30 16 C 1.245332 3.556323 0.474251 0
M  V30 17 C 0.967495 2.219741 0.773560 0
M  V30 18 C 0.320455 1.397961 -0.126538 0
M  V30 19 C 0.045136 0.076105 0.167632 0
M  V30 20 N -1.357669 -2.559853 1.902661 0
M  V30 21 H -2.012506 -2.047755 4.646267 0
M  V30 22 H -2.619185 -3.826964 3.972193 0
M  V30 23 H 2.617259 -4.224184 3.661963 0
M  V30 24 H 3.196685 -3.806024 2.049581 0
M  V30 25 H -1.317944 -2.796482 -0.947432 0
M  V30 26 H -1.511878 -0.899017 -2.698434 0
M  V30 27 H -1.036360 1.464729 -3.262615 0
M  V30 28 H -0.106640 3.612172 -2.642623 0
M  V30 29 H 1.019575 5.053016 -1.083345 0
M  V30 30 H 1.741724 4.241168 1.127013 0
M  V30 31 H 1.272746 1.843025 1.731138 0
M  V30 32 H 0.370688 -0.259311 1.142496 0
M  V30 END ATOM
M  V30 BEGIN BOND
M  V30 1 1 1 2
M  V30 2 2 2 3
M  V30 3 1 3 4
M  V30 4 1 4 5
M  V30 5 1 5 6
M  V30 6 2 4 7
M  V30 7 1 7 8
M  V30 8 1 8 9
M  V30 9 1 9 10
M  V30 10 2 10 11
M  V30 11 1 11 12
M  V30 12 2 12 13
M  V30 13 1 13 14
M  V30 14 2 14 15
M  V30 15 1 15 16
M  V30 16 2 16 17
M  V30 17 1 17 18
M  V30 18 2 18 19
M  V30 19 2 8 20
M  V30 20 1 20 2
M  V30 21 1 19 10
M  V30 22 1 18 13
M  V30 23 1 1 21
M  V30 24 1 1 22
M  V30 25 1 5 23
M  V30 26 1 5 24
M  V30 27 1 9 25
M  V30 28 1 11 26
M  V30 29 1 12 27
M  V30 30 1 14 28
M  V30 31 1 15 29
M  V30 32 1 16 30
M  V30 33 1 17 31
M  V30 34 1 19 32
M  V30 END BOND
M  V30 END CTAB
M  END
>  <Dataset>  (620) 
ChEMBL_Kinases

>  <Ligand_Instance>  (620) 
nan

>  <PDB_ID>  (620) 
nan

>  <Standardized_SMILES>  (620) 
Nc1nc(CCl)nc(Nc2ccc3ccccc3c2)n1

>  <Name>  (620) 
nan

>  <Pocket>  (620) 
nan

>  <ATP_Site>  (620) 
nan

>  <Peripheral>  (620) 
nan

>  <Num_H_Atoms_ProtBoundConf>  (620) 
nan

>  <Num_Resolved_Atoms>  (620) 
nan

>  <Num_Not_Resolved_Atoms>  (620) 
nan

$$$$
CHEMBL1418590
     RDKit          3D

  0  0  0  0  0  0  0  0  0  0999 V3000
M  V30 BEGIN CTAB
M  V30 COUNTS 55 59 0 0 0
M  V30 BEGIN ATOM
M  V30 1 C 3.187947 -1.519056 -2.855907 0
M  V30 2 O 3.326770 -1.593928 -1.456394 0
M  V30 3 C 2.399390 -0.715484 -0.937687 0
M  V30 4 C 2.383237 -0.640738 0.544353 0 CFG=1
M  V30 5 O 3.672311 -0.206491 1.075368 0
M  V30 6 C 3.869735 1.175278 0.797950 0
M  V30 7 O 4.963842 1.785688 0.684194 0
M  V30 8 C 2.679109 2.025091 0.615803 0
M  V30 9 C 2.429702 3.350454 0.233831 0
M  V30 10 O 1.112295 3.537476 0.128989 0
M  V30 11 C 0.450760 2.465262 0.404259 0
M  V30 12 C 1.396516 1.517541 0.713925 0
M  V30 13 C 1.303835 0.111160 1.185674 0 CFG=2
M  V30 14 C 1.786836 0.243496 2.686758 0
M  V30 15 C -0.070041 -0.320579 1.199627 0
M  V30 16 C -1.108719 0.489214 0.894207 0
M  V30 17 C -0.893580 1.909578 0.496457 0
M  V30 18 O -1.822329 2.707694 0.219600 0
M  V30 19 C -2.525976 0.104746 0.912091 0 CFG=1
M  V30 20 C -3.157801 -0.039153 -0.450813 0
M  V30 21 C -4.278791 -1.037114 -0.126252 0
M  V30 22 C -3.484534 -1.994936 0.691981 0
M  V30 23 O -3.334592 -3.214534 0.615853 0
M  V30 24 C -2.846600 -1.116980 1.714961 0 CFG=2
M  V30 25 C -3.920478 -0.826775 2.737033 0
M  V30 26 C -1.694967 -1.820636 2.322554 0
M  V30 27 C -0.402777 -1.733465 1.560925 0 CFG=1
M  V30 28 O -0.439936 -2.591072 0.433989 0
M  V30 29 C 0.359911 -3.666939 0.192491 0
M  V30 30 C -0.013537 -4.296521 -1.118754 0
M  V30 31 O 1.297982 -4.195005 0.831793 0
M  V30 32 H 3.886695 -2.187488 -3.376186 0
M  V30 33 H 3.267025 -0.449959 -3.153565 0
M  V30 34 H 2.169820 -1.851822 -3.191739 0
M  V30 35 H 2.544749 0.323771 -1.360576 0
M  V30 36 H 1.425709 -1.019162 -1.374988 0
M  V30 37 H 2.338185 -1.682709 0.926249 0
M  V30 38 H 3.207587 4.079876 0.060043 0
M  V30 39 H 1.378802 1.197638 3.060339 0
M  V30 40 H 2.854369 0.134913 2.751247 0
M  V30 41 H 1.245931 -0.557434 3.229339 0
M  V30 42 H -3.077537 0.954795 1.378642 0
M  V30 43 H -3.612053 0.915020 -0.809171 0
M  V30 44 H -2.538711 -0.512754 -1.208083 0
M  V30 45 H -5.069790 -0.552838 0.490730 0
M  V30 46 H -4.666664 -1.538596 -1.026740 0
M  V30 47 H -4.138333 0.261234 2.752425 0
M  V30 48 H -4.846396 -1.406016 2.553763 0
M  V30 49 H -3.583266 -1.169234 3.757967 0
M  V30 50 H -1.924124 -2.894726 2.458801 0
M  V30 51 H -1.515405 -1.422319 3.340970 0
M  V30 52 H 0.426811 -2.110256 2.184580 0
M  V30 53 H -1.054725 -4.677470 -0.998720 0
M  V30 54 H 0.643241 -5.149858 -1.380421 0
M  V30 55 H -0.042359 -3.518813 -1.906516 0
M  V30 END ATOM
M  V30 BEGIN BOND
M  V30 1 1 1 2
M  V30 2 1 2 3
M  V30 3 1 3 4
M  V30 4 1 4 5
M  V30 5 1 5 6
M  V30 6 2 6 7
M  V30 7 1 6 8
M  V30 8 2 8 9
M  V30 9 1 9 10
M  V30 10 1 10 11
M  V30 11 2 11 12
M  V30 12 1 12 13
M  V30 13 1 13 14 CFG=1
M  V30 14 1 13 15
M  V30 15 2 15 16
M  V30 16 1 16 17
M  V30 17 2 17 18
M  V30 18 1 16 19
M  V30 19 1 19 20
M  V30 20 1 20 21
M  V30 21 1 21 22
M  V30 22 2 22 23
M  V30 23 1 22 24
M  V30 24 1 24 25 CFG=1
M  V30 25 1 24 26
M  V30 26 1 26 27
M  V30 27 1 27 28
M  V30 28 1 28 29
M  V30 29 1 29 30
M  V30 30 2 29 31
M  V30 31 1 13 4
M  V30 32 1 27 15
M  V30 33 1 12 8
M  V30 34 1 24 19
M  V30 35 1 17 11
M  V30 36 1 1 32
M  V30 37 1 1 33
M  V30 38 1 1 34
M  V30 39 1 3 35
M  V30 40 1 3 36
M  V30 41 1 4 37 CFG=1
M  V30 42 1 9 38
M  V30 43 1 14 39
M  V30 44 1 14 40
M  V30 45 1 14 41
M  V30 46 1 19 42 CFG=1
M  V30 47 1 20 43
M  V30 48 1 20 44
M  V30 49 1 21 45
M  V30 50 1 21 46
M  V30 51 1 25 47
M  V30 52 1 25 48
M  V30 53 1 25 49
M  V30 54 1 26 50
M  V30 55 1 26 51
M  V30 56 1 27 52 CFG=1
M  V30 57 1 30 53
M  V30 58 1 30 54
M  V30 59 1 30 55
M  V30 END BOND
M  V30 END CTAB
M  END
>  <Dataset>  (621) 
ChEMBL_Kinases

>  <Ligand_Instance>  (621) 
nan

>  <PDB_ID>  (621) 
nan

>  <Standardized_SMILES>  (621) 
COC[C@H]1OC(=O)c2coc3c2[C@@]1(C)C1=C(C3=O)[C@H]2CCC(=O)[C@@]2(C)C[C@H]1OC(C)=O

>  <Name>  (621) 
nan

>  <Pocket>  (621) 
nan

>  <ATP_Site>  (621) 
nan

>  <Peripheral>  (621) 
nan

>  <Num_H_Atoms_ProtBoundConf>  (621) 
nan

>  <Num_Resolved_Atoms>  (621) 
nan

>  <Num_Not_Resolved_Atoms>  (621) 
nan

$$$$
CHEMBL1418655
     RDKit          3D

  0  0  0  0  0  0  0  0  0  0999 V3000
M  V30 BEGIN CTAB
M  V30 COUNTS 45 47 0 0 0
M  V30 BEGIN ATOM
M  V30 1 C -2.088127 -3.647476 2.378168 0
M  V30 2 C -0.820831 -3.589695 1.554376 0
M  V30 3 C 0.426236 -3.799063 2.390640 0
M  V30 4 C -0.863650 -4.731486 0.557697 0
M  V30 5 N -0.723494 -2.339451 0.821968 0
M  V30 6 C -0.691188 -1.038581 1.435331 0
M  V30 7 O -0.741682 -0.764296 2.661406 0
M  V30 8 C -0.583108 -0.015876 0.334922 0 CFG=1
M  V30 9 C 0.161092 1.191747 0.756719 0 CFG=2
M  V30 10 C -0.320039 2.463516 0.085653 0 CFG=2
M  V30 11 O -0.095139 2.253905 -1.289945 0
M  V30 12 C 0.542590 3.621945 0.484515 0 CFG=2
M  V30 13 O 1.152911 4.248866 -0.619288 0
M  V30 14 C 1.526444 3.347157 1.576115 0
M  V30 15 C 2.294904 2.081316 1.348948 0
M  V30 16 O 3.363878 1.905196 1.913082 0
M  V30 17 C 1.645784 1.113638 0.409553 0 CFG=1
M  V30 18 C 2.109796 -0.295231 0.643616 0
M  V30 19 C 1.518857 -1.122760 -0.496278 0
M  V30 20 C 0.075233 -0.826652 -0.742883 0 CFG=1
M  V30 21 C -0.642848 -2.143496 -0.596499 0
M  V30 22 O -1.092837 -2.936671 -1.438732 0
M  V30 23 H -2.817835 -4.380012 1.968275 0
M  V30 24 H -1.816938 -4.032338 3.395111 0
M  V30 25 H -2.525925 -2.644649 2.437053 0
M  V30 26 H 0.498896 -4.864710 2.680906 0
M  V30 27 H 1.289213 -3.591470 1.732180 0
M  V30 28 H 0.420655 -3.181115 3.309552 0
M  V30 29 H -1.829951 -4.706252 -0.011937 0
M  V30 30 H 0.010736 -4.721777 -0.110160 0
M  V30 31 H -0.828370 -5.682941 1.140736 0
M  V30 32 H -1.602707 0.214547 0.021967 0
M  V30 33 H 0.054783 1.356257 1.854506 0
M  V30 34 H -1.392543 2.659286 0.212705 0
M  V30 35 H 0.045319 3.133912 -1.746566 0
M  V30 36 H -0.151092 4.411722 0.899175 0
M  V30 37 H 1.359859 5.184085 -0.334028 0
M  V30 38 H 1.055217 3.390162 2.559087 0
M  V30 39 H 2.295693 4.161572 1.526127 0
M  V30 40 H 1.840974 1.376720 -0.638296 0
M  V30 41 H 1.805411 -0.675388 1.627956 0
M  V30 42 H 3.212916 -0.380102 0.551280 0
M  V30 43 H 1.759103 -2.206835 -0.388608 0
M  V30 44 H 2.101705 -0.799062 -1.405538 0
M  V30 45 H -0.111068 -0.371170 -1.730422 0
M  V30 END ATOM
M  V30 BEGIN BOND
M  V30 1 1 1 2
M  V30 2 1 2 3
M  V30 3 1 2 4
M  V30 4 1 2 5
M  V30 5 1 5 6
M  V30 6 2 6 7
M  V30 7 1 6 8
M  V30 8 1 8 9
M  V30 9 1 9 10
M  V30 10 1 10 11
M  V30 11 1 10 12
M  V30 12 1 12 13
M  V30 13 1 12 14
M  V30 14 1 14 15
M  V30 15 2 15 16
M  V30 16 1 15 17
M  V30 17 1 17 18
M  V30 18 1 18 19
M  V30 19 1 19 20
M  V30 20 1 20 21
M  V30 21 2 21 22
M  V30 22 1 21 5
M  V30 23 1 20 8
M  V30 24 1 17 9
M  V30 25 1 1 23
M  V30 26 1 1 24
M  V30 27 1 1 25
M  V30 28 1 3 26
M  V30 29 1 3 27
M  V30 30 1 3 28
M  V30 31 1 4 29
M  V30 32 1 4 30
M  V30 33 1 4 31
M  V30 34 1 8 32 CFG=3
M  V30 35 1 9 33 CFG=1
M  V30 36 1 10 34 CFG=3
M  V30 37 1 11 35
M  V30 38 1 12 36 CFG=1
M  V30 39 1 13 37
M  V30 40 1 14 38
M  V30 41 1 14 39
M  V30 42 1 17 40 CFG=3
M  V30 43 1 18 41
M  V30 44 1 18 42
M  V30 45 1 19 43
M  V30 46 1 19 44
M  V30 47 1 20 45 CFG=3
M  V30 END BOND
M  V30 END CTAB
M  END
>  <Dataset>  (622) 
ChEMBL_Kinases

>  <Ligand_Instance>  (622) 
nan

>  <PDB_ID>  (622) 
nan

>  <Standardized_SMILES>  (622) 
CC(C)(C)N1C(=O)[C@H]2[C@@H]3[C@H](O)[C@H](O)CC(=O)[C@H]3CC[C@H]2C1=O

>  <Name>  (622) 
nan

>  <Pocket>  (622) 
nan

>  <ATP_Site>  (622) 
nan

>  <Peripheral>  (622) 
nan

>  <Num_H_Atoms_ProtBoundConf>  (622) 
nan

>  <Num_Resolved_Atoms>  (622) 
nan

>  <Num_Not_Resolved_Atoms>  (622) 
nan

$$$$
CHEMBL1418737
     RDKit          3D

  0  0  0  0  0  0  0  0  0  0999 V3000
M  V30 BEGIN CTAB
M  V30 COUNTS 31 34 0 0 0
M  V30 BEGIN ATOM
M  V30 1 O -0.783413 -3.036504 1.891484 0
M  V30 2 C 0.378649 -2.598801 1.704272 0
M  V30 3 O 1.323407 -2.778767 2.594921 0
M  V30 4 C 2.446660 -2.226816 2.161952 0
M  V30 5 C 3.717433 -2.124846 2.688790 0
M  V30 6 C 4.716544 -1.475452 1.993151 0
M  V30 7 C 4.420454 -0.928947 0.758321 0
M  V30 8 C 3.140676 -1.056147 0.275852 0
M  V30 9 C 2.110403 -1.690148 0.924522 0
M  V30 10 N 0.804974 -1.919538 0.625506 0
M  V30 11 C 0.095572 -1.509898 -0.567987 0
M  V30 12 N -0.535444 -0.212377 -0.445663 0
M  V30 13 C -0.054514 1.014058 -0.714417 0
M  V30 14 O 1.081704 1.292678 -1.138540 0
M  V30 15 O -0.930517 1.960975 -0.481216 0
M  V30 16 C -2.059012 1.419363 -0.039139 0
M  V30 17 C -3.276497 1.939231 0.348520 0
M  V30 18 C -4.294093 1.111063 0.773588 0
M  V30 19 C -4.073069 -0.247870 0.804324 0
M  V30 20 C -2.841009 -0.724730 0.408235 0
M  V30 21 C -1.804306 0.056983 -0.019455 0
M  V30 22 H 3.884538 -2.576150 3.664156 0
M  V30 23 H 5.703265 -1.416341 2.441510 0
M  V30 24 H 5.202588 -0.416252 0.204913 0
M  V30 25 H 2.970528 -0.619722 -0.680511 0
M  V30 26 H -0.727930 -2.251300 -0.737487 0
M  V30 27 H 0.746636 -1.536409 -1.466919 0
M  V30 28 H -3.379668 3.023235 0.298143 0
M  V30 29 H -5.206432 1.633927 1.053495 0
M  V30 30 H -4.896592 -0.846592 1.142417 0
M  V30 31 H -2.726898 -1.782219 0.448724 0
M  V30 END ATOM
M  V30 BEGIN BOND
M  V30 1 2 1 2
M  V30 2 1 2 3
M  V30 3 1 3 4
M  V30 4 2 4 5
M  V30 5 1 5 6
M  V30 6 2 6 7
M  V30 7 1 7 8
M  V30 8 2 8 9
M  V30 9 1 9 10
M  V30 10 1 10 11
M  V30 11 1 11 12
M  V30 12 1 12 13
M  V30 13 2 13 14
M  V30 14 1 13 15
M  V30 15 1 15 16
M  V30 16 2 16 17
M  V30 17 1 17 18
M  V30 18 2 18 19
M  V30 19 1 19 20
M  V30 20 2 20 21
M  V30 21 1 10 2
M  V30 22 1 21 12
M  V30 23 1 9 4
M  V30 24 1 21 16
M  V30 25 1 5 22
M  V30 26 1 6 23
M  V30 27 1 7 24
M  V30 28 1 8 25
M  V30 29 1 11 26
M  V30 30 1 11 27
M  V30 31 1 17 28
M  V30 32 1 18 29
M  V30 33 1 19 30
M  V30 34 1 20 31
M  V30 END BOND
M  V30 END CTAB
M  END
>  <Dataset>  (623) 
ChEMBL_Kinases

>  <Ligand_Instance>  (623) 
nan

>  <PDB_ID>  (623) 
nan

>  <Standardized_SMILES>  (623) 
O=c1oc2ccccc2n1Cn1c(=O)oc2ccccc21

>  <Name>  (623) 
nan

>  <Pocket>  (623) 
nan

>  <ATP_Site>  (623) 
nan

>  <Peripheral>  (623) 
nan

>  <Num_H_Atoms_ProtBoundConf>  (623) 
nan

>  <Num_Resolved_Atoms>  (623) 
nan

>  <Num_Not_Resolved_Atoms>  (623) 
nan

$$$$
CHEMBL1418759
     RDKit          3D

  0  0  0  0  0  0  0  0  0  0999 V3000
M  V30 BEGIN CTAB
M  V30 COUNTS 39 41 0 0 0
M  V30 BEGIN ATOM
M  V30 1 C -2.164428 -5.794917 2.931232 0
M  V30 2 O -2.449714 -4.532110 2.314688 0
M  V30 3 C -1.428698 -3.645324 2.011446 0
M  V30 4 C -0.121790 -3.967077 2.299856 0
M  V30 5 C 0.865921 -3.056783 1.982165 0
M  V30 6 N 2.154395 -3.322967 2.242863 0
M  V30 7 C 3.115189 -2.436463 1.933417 0
M  V30 8 N 2.781508 -1.279877 1.360816 0
M  V30 9 C 1.524763 -0.912777 1.056622 0
M  V30 10 N 1.267072 0.344271 0.445429 0
M  V30 11 C 2.396302 1.218407 0.159648 0
M  V30 12 C 1.953714 2.485958 -0.476556 0
M  V30 13 C 1.845441 2.628402 -1.849313 0
M  V30 14 C 1.423331 3.855570 -2.322307 0
M  V30 15 C 1.118783 4.903178 -1.485587 0
M  V30 16 C 1.231492 4.747551 -0.109888 0
M  V30 17 Cl 0.841872 6.087775 0.961204 0
M  V30 18 C 1.651901 3.528890 0.387068 0
M  V30 19 C 0.569840 -1.849182 1.389868 0
M  V30 20 C -0.749574 -1.560171 1.115333 0
M  V30 21 C -1.756096 -2.450014 1.421531 0
M  V30 22 O -3.091963 -2.174327 1.151432 0
M  V30 23 C -3.369954 -0.926460 0.542363 0
M  V30 24 H -1.278452 -6.274685 2.427970 0
M  V30 25 H -1.979503 -5.706648 4.015056 0
M  V30 26 H -2.999156 -6.505916 2.776659 0
M  V30 27 H 0.177876 -4.885974 2.758497 0
M  V30 28 H 4.159395 -2.645970 2.141804 0
M  V30 29 H 0.333515 0.711538 0.175508 0
M  V30 30 H 2.966169 1.442884 1.108013 0
M  V30 31 H 3.038436 0.652440 -0.547078 0
M  V30 32 H 2.090907 1.788177 -2.493211 0
M  V30 33 H 1.331561 3.989199 -3.391557 0
M  V30 34 H 0.790713 5.860382 -1.828730 0
M  V30 35 H 1.737497 3.416055 1.470763 0
M  V30 36 H -1.049819 -0.646682 0.659164 0
M  V30 37 H -2.964589 -0.060969 1.103018 0
M  V30 38 H -4.459990 -0.793417 0.387615 0
M  V30 39 H -2.916901 -0.872770 -0.480710 0
M  V30 END ATOM
M  V30 BEGIN BOND
M  V30 1 1 1 2
M  V30 2 1 2 3
M  V30 3 2 3 4
M  V30 4 1 4 5
M  V30 5 2 5 6
M  V30 6 1 6 7
M  V30 7 2 7 8
M  V30 8 1 8 9
M  V30 9 1 9 10
M  V30 10 1 10 11
M  V30 11 1 11 12
M  V30 12 2 12 13
M  V30 13 1 13 14
M  V30 14 2 14 15
M  V30 15 1 15 16
M  V30 16 1 16 17
M  V30 17 2 16 18
M  V30 18 2 9 19
M  V30 19 1 19 20
M  V30 20 2 20 21
M  V30 21 1 21 22
M  V30 22 1 22 23
M  V30 23 1 21 3
M  V30 24 1 19 5
M  V30 25 1 18 12
M  V30 26 1 1 24
M  V30 27 1 1 25
M  V30 28 1 1 26
M  V30 29 1 4 27
M  V30 30 1 7 28
M  V30 31 1 10 29
M  V30 32 1 11 30
M  V30 33 1 11 31
M  V30 34 1 13 32
M  V30 35 1 14 33
M  V30 36 1 15 34
M  V30 37 1 18 35
M  V30 38 1 20 36
M  V30 39 1 23 37
M  V30 40 1 23 38
M  V30 41 1 23 39
M  V30 END BOND
M  V30 END CTAB
M  END
>  <Dataset>  (624) 
ChEMBL_Kinases

>  <Ligand_Instance>  (624) 
nan

>  <PDB_ID>  (624) 
nan

>  <Standardized_SMILES>  (624) 
COc1cc2ncnc(NCc3cccc(Cl)c3)c2cc1OC

>  <Name>  (624) 
nan

>  <Pocket>  (624) 
nan

>  <ATP_Site>  (624) 
nan

>  <Peripheral>  (624) 
nan

>  <Num_H_Atoms_ProtBoundConf>  (624) 
nan

>  <Num_Resolved_Atoms>  (624) 
nan

>  <Num_Not_Resolved_Atoms>  (624) 
nan

$$$$
CHEMBL1418773
     RDKit          3D

  0  0  0  0  0  0  0  0  0  0999 V3000
M  V30 BEGIN CTAB
M  V30 COUNTS 42 42 0 0 0
M  V30 BEGIN ATOM
M  V30 1 C -0.853239 -3.487457 0.908937 0
M  V30 2 C 0.097999 -3.750397 -0.240983 0
M  V30 3 C 1.332126 -4.401385 0.286220 0
M  V30 4 C -0.680001 -4.641643 -1.215822 0
M  V30 5 N 0.390418 -2.534649 -0.970185 0
M  V30 6 C 0.986957 -1.492664 -0.215273 0
M  V30 7 O 1.287701 -1.520116 1.006892 0
M  V30 8 C 1.267038 -0.252876 -0.992530 0
M  V30 9 O 1.846221 0.673233 -0.110053 0
M  V30 10 C 2.184924 1.951962 -0.500551 0
M  V30 11 O 1.861322 2.030091 -1.732563 0
M  V30 12 C 2.791112 3.098043 0.227751 0
M  V30 13 C 1.746810 3.681501 1.201359 0
M  V30 14 C 1.373091 2.642009 2.174694 0
M  V30 15 O 2.362248 2.602315 2.991213 0
M  V30 16 C 0.216655 1.778067 2.325367 0
M  V30 17 C -0.900428 1.716195 1.517029 0
M  V30 18 C -1.937089 0.838624 1.788551 0
M  V30 19 C -1.845525 0.011761 2.889853 0
M  V30 20 Cl -3.119053 -1.122114 3.302687 0
M  V30 21 C -0.747919 0.054428 3.705642 0
M  V30 22 C 0.262752 0.930010 3.416348 0
M  V30 23 H -1.459051 -4.404237 1.053008 0
M  V30 24 H -0.319456 -3.307018 1.857755 0
M  V30 25 H -1.489448 -2.593214 0.718262 0
M  V30 26 H 1.146417 -5.489827 0.484078 0
M  V30 27 H 2.204558 -4.273365 -0.399586 0
M  V30 28 H 1.614173 -3.944961 1.270354 0
M  V30 29 H -1.653427 -4.136508 -1.432964 0
M  V30 30 H -0.782940 -5.670000 -0.873354 0
M  V30 31 H -0.127663 -4.676908 -2.183229 0
M  V30 32 H 0.181320 -2.415149 -2.006544 0
M  V30 33 H 0.319962 0.169107 -1.392072 0
M  V30 34 H 1.927795 -0.485210 -1.861835 0
M  V30 35 H 3.046440 3.853498 -0.545205 0
M  V30 36 H 3.658648 2.726001 0.788578 0
M  V30 37 H 0.837289 3.965785 0.606507 0
M  V30 38 H 2.109132 4.600747 1.652371 0
M  V30 39 H -0.902431 2.380984 0.685615 0
M  V30 40 H -2.805347 0.795062 1.157633 0
M  V30 41 H -0.676858 -0.604850 4.581389 0
M  V30 42 H 1.111658 0.912582 4.106368 0
M  V30 END ATOM
M  V30 BEGIN BOND
M  V30 1 1 1 2
M  V30 2 1 2 3
M  V30 3 1 2 4
M  V30 4 1 2 5
M  V30 5 1 5 6
M  V30 6 2 6 7
M  V30 7 1 6 8
M  V30 8 1 8 9
M  V30 9 1 9 10
M  V30 10 2 10 11
M  V30 11 1 10 12
M  V30 12 1 12 13
M  V30 13 1 13 14
M  V30 14 2 14 15
M  V30 15 1 14 16
M  V30 16 2 16 17
M  V30 17 1 17 18
M  V30 18 2 18 19
M  V30 19 1 19 20
M  V30 20 1 19 21
M  V30 21 2 21 22
M  V30 22 1 22 16
M  V30 23 1 1 23
M  V30 24 1 1 24
M  V30 25 1 1 25
M  V30 26 1 3 26
M  V30 27 1 3 27
M  V30 28 1 3 28
M  V30 29 1 4 29
M  V30 30 1 4 30
M  V30 31 1 4 31
M  V30 32 1 5 32
M  V30 33 1 8 33
M  V30 34 1 8 34
M  V30 35 1 12 35
M  V30 36 1 12 36
M  V30 37 1 13 37
M  V30 38 1 13 38
M  V30 39 1 17 39
M  V30 40 1 18 40
M  V30 41 1 21 41
M  V30 42 1 22 42
M  V30 END BOND
M  V30 END CTAB
M  END
>  <Dataset>  (625) 
ChEMBL_Kinases

>  <Ligand_Instance>  (625) 
nan

>  <PDB_ID>  (625) 
nan

>  <Standardized_SMILES>  (625) 
CC(C)(C)NC(=O)COC(=O)CCC(=O)c1ccc(Cl)cc1

>  <Name>  (625) 
nan

>  <Pocket>  (625) 
nan

>  <ATP_Site>  (625) 
nan

>  <Peripheral>  (625) 
nan

>  <Num_H_Atoms_ProtBoundConf>  (625) 
nan

>  <Num_Resolved_Atoms>  (625) 
nan

>  <Num_Not_Resolved_Atoms>  (625) 
nan

$$$$
CHEMBL1418954
     RDKit          3D

  0  0  0  0  0  0  0  0  0  0999 V3000
M  V30 BEGIN CTAB
M  V30 COUNTS 33 34 0 0 0
M  V30 BEGIN ATOM
M  V30 1 C -2.116103 -3.036235 2.148156 0
M  V30 2 O -1.369275 -2.083320 1.397822 0
M  V30 3 C -0.004676 -2.048771 1.656626 0
M  V30 4 C 0.645222 -2.856952 2.567406 0
M  V30 5 C 2.006757 -2.775185 2.780454 0
M  V30 6 C 2.715059 -1.849732 2.048105 0
M  V30 7 Cl 4.447079 -1.766449 2.338896 0
M  V30 8 C 2.081110 -1.028555 1.128322 0
M  V30 9 C 0.714947 -1.124684 0.927997 0
M  V30 10 N 0.216084 -0.215445 -0.047019 0
M  V30 11 C 0.486981 -0.317468 -1.381218 0
M  V30 12 C 1.321146 -1.358391 -2.031792 0
M  V30 13 C -0.144027 0.717894 -2.068714 0
M  V30 14 C -0.801432 1.441477 -1.095542 0
M  V30 15 C -1.577559 2.617155 -1.475841 0
M  V30 16 O -1.727534 3.075571 -2.649513 0
M  V30 17 O -2.293928 3.451631 -0.634130 0
M  V30 18 C -0.569356 0.856384 0.129301 0
M  V30 19 C -1.110790 1.354896 1.394327 0
M  V30 20 H -3.188681 -3.022520 1.944404 0
M  V30 21 H -1.972470 -2.773217 3.234601 0
M  V30 22 H -1.648523 -4.038870 1.988356 0
M  V30 23 H 0.029394 -3.575723 3.122146 0
M  V30 24 H 2.469370 -3.443393 3.517501 0
M  V30 25 H 2.735238 -0.326983 0.598191 0
M  V30 26 H 0.623013 -2.008254 -2.589949 0
M  V30 27 H 1.901918 -1.867124 -1.246848 0
M  V30 28 H 2.058217 -0.903982 -2.729448 0
M  V30 29 H -0.093026 0.872667 -3.147623 0
M  V30 30 H -2.146542 4.468390 -0.600489 0
M  V30 31 H -1.561556 0.581577 2.051115 0
M  V30 32 H -0.276185 1.894693 1.920978 0
M  V30 33 H -1.908893 2.106847 1.238531 0
M  V30 END ATOM
M  V30 BEGIN BOND
M  V30 1 1 1 2
M  V30 2 1 2 3
M  V30 3 2 3 4
M  V30 4 1 4 5
M  V30 5 2 5 6
M  V30 6 1 6 7
M  V30 7 1 6 8
M  V30 8 2 8 9
M  V30 9 1 9 10
M  V30 10 1 10 11
M  V30 11 1 11 12
M  V30 12 2 11 13
M  V30 13 1 13 14
M  V30 14 1 14 15
M  V30 15 2 15 16
M  V30 16 1 15 17
M  V30 17 2 14 18
M  V30 18 1 18 19
M  V30 19 1 9 3
M  V30 20 1 18 10
M  V30 21 1 1 20
M  V30 22 1 1 21
M  V30 23 1 1 22
M  V30 24 1 4 23
M  V30 25 1 5 24
M  V30 26 1 8 25
M  V30 27 1 12 26
M  V30 28 1 12 27
M  V30 29 1 12 28
M  V30 30 1 13 29
M  V30 31 1 17 30
M  V30 32 1 19 31
M  V30 33 1 19 32
M  V30 34 1 19 33
M  V30 END BOND
M  V30 END CTAB
M  END
>  <Dataset>  (626) 
ChEMBL_Kinases

>  <Ligand_Instance>  (626) 
nan

>  <PDB_ID>  (626) 
nan

>  <Standardized_SMILES>  (626) 
COc1ccc(Cl)cc1-n1c(C)cc(C(=O)O)c1C

>  <Name>  (626) 
nan

>  <Pocket>  (626) 
nan

>  <ATP_Site>  (626) 
nan

>  <Peripheral>  (626) 
nan

>  <Num_H_Atoms_ProtBoundConf>  (626) 
nan

>  <Num_Resolved_Atoms>  (626) 
nan

>  <Num_Not_Resolved_Atoms>  (626) 
nan

$$$$
CHEMBL1419089
     RDKit          3D

  0  0  0  0  0  0  0  0  0  0999 V3000
M  V30 BEGIN CTAB
M  V30 COUNTS 53 57 0 0 0
M  V30 BEGIN ATOM
M  V30 1 C 0.237153 -4.592088 3.925282 0
M  V30 2 C 0.850045 -5.223348 2.713913 0
M  V30 3 O 0.119690 -6.059050 2.090718 0
M  V30 4 N 2.191445 -4.818811 2.388451 0
M  V30 5 C 3.119295 -3.891371 3.003077 0
M  V30 6 C 3.570410 -2.873007 2.005830 0
M  V30 7 N 2.946822 -2.989891 0.708816 0
M  V30 8 C 2.181805 -2.001461 0.041134 0
M  V30 9 C 1.820519 -0.864972 0.723807 0
M  V30 10 C 1.073546 0.123374 0.070170 0
M  V30 11 C 0.690107 -0.021139 -1.254784 0
M  V30 12 N -0.070757 0.975056 -1.927218 0
M  V30 13 C -0.654574 2.086076 -1.258102 0
M  V30 14 N -0.027527 3.248084 -0.951430 0
M  V30 15 C -0.690305 4.249916 -0.313219 0
M  V30 16 C 0.001825 5.521299 0.022493 0
M  V30 17 N -2.002740 4.138852 0.045566 0
M  V30 18 C -2.665688 3.001310 -0.239421 0
M  V30 19 C -2.001757 1.956857 -0.895705 0
M  V30 20 O -2.849605 0.941741 -1.070306 0
M  V30 21 C -4.029591 1.249347 -0.571663 0
M  V30 22 C -5.197743 0.499387 -0.533429 0
M  V30 23 C -6.295685 1.111951 0.069927 0
M  V30 24 C -6.219392 2.391322 0.597132 0
M  V30 25 C -5.032165 3.115250 0.542068 0
M  V30 26 C -3.929546 2.520601 -0.054933 0
M  V30 27 C 1.063618 -1.171680 -1.924087 0
M  V30 28 C 1.802787 -2.147563 -1.273232 0
M  V30 29 C 3.260712 -4.329132 0.237762 0
M  V30 30 C 2.873091 -5.381063 1.233764 0
M  V30 31 H 0.963312 -4.289627 4.679598 0
M  V30 32 H -0.391730 -3.765198 3.526861 0
M  V30 33 H -0.459030 -5.312187 4.407502 0
M  V30 34 H 3.971469 -4.471265 3.356868 0
M  V30 35 H 2.641186 -3.438725 3.899466 0
M  V30 36 H 4.687451 -3.002310 1.868980 0
M  V30 37 H 3.486484 -1.856897 2.448830 0
M  V30 38 H 2.050526 -0.630114 1.751683 0
M  V30 39 H 0.775449 1.037743 0.596298 0
M  V30 40 H -0.216162 0.900210 -2.956222 0
M  V30 41 H -0.145228 6.314200 -0.725201 0
M  V30 42 H -0.220063 5.852403 1.057924 0
M  V30 43 H 1.108776 5.302839 0.008750 0
M  V30 44 H -5.290904 -0.497243 -0.933598 0
M  V30 45 H -7.210654 0.529345 0.102095 0
M  V30 46 H -7.129078 2.763937 1.040153 0
M  V30 47 H -4.997257 4.111589 0.960377 0
M  V30 48 H 0.769421 -1.293977 -2.956795 0
M  V30 49 H 2.049633 -3.005168 -1.867355 0
M  V30 50 H 4.350110 -4.426209 0.029966 0
M  V30 51 H 2.716063 -4.520860 -0.706706 0
M  V30 52 H 3.747536 -5.983313 1.573072 0
M  V30 53 H 2.192960 -6.099004 0.752679 0
M  V30 END ATOM
M  V30 BEGIN BOND
M  V30 1 1 1 2
M  V30 2 2 2 3
M  V30 3 1 2 4
M  V30 4 1 4 5
M  V30 5 1 5 6
M  V30 6 1 6 7
M  V30 7 1 7 8
M  V30 8 2 8 9
M  V30 9 1 9 10
M  V30 10 2 10 11
M  V30 11 1 11 12
M  V30 12 1 12 13
M  V30 13 2 13 14
M  V30 14 1 14 15
M  V30 15 1 15 16
M  V30 16 2 15 17
M  V30 17 1 17 18
M  V30 18 2 18 19
M  V30 19 1 19 20
M  V30 20 1 20 21
M  V30 21 2 21 22
M  V30 22 1 22 23
M  V30 23 2 23 24
M  V30 24 1 24 25
M  V30 25 2 25 26
M  V30 26 1 11 27
M  V30 27 2 27 28
M  V30 28 1 7 29
M  V30 29 1 29 30
M  V30 30 1 30 4
M  V30 31 1 28 8
M  V30 32 1 19 13
M  V30 33 1 26 21
M  V30 34 1 26 18
M  V30 35 1 1 31
M  V30 36 1 1 32
M  V30 37 1 1 33
M  V30 38 1 5 34
M  V30 39 1 5 35
M  V30 40 1 6 36
M  V30 41 1 6 37
M  V30 42 1 9 38
M  V30 43 1 10 39
M  V30 44 1 12 40
M  V30 45 1 16 41
M  V30 46 1 16 42
M  V30 47 1 16 43
M  V30 48 1 22 44
M  V30 49 1 23 45
M  V30 50 1 24 46
M  V30 51 1 25 47
M  V30 52 1 27 48
M  V30 53 1 28 49
M  V30 54 1 29 50
M  V30 55 1 29 51
M  V30 56 1 30 52
M  V30 57 1 30 53
M  V30 END BOND
M  V30 END CTAB
M  END
>  <Dataset>  (627) 
ChEMBL_Kinases

>  <Ligand_Instance>  (627) 
nan

>  <PDB_ID>  (627) 
nan

>  <Standardized_SMILES>  (627) 
CC(=O)N1CCN(c2ccc(Nc3nc(C)nc4c3oc3ccccc34)cc2)CC1

>  <Name>  (627) 
nan

>  <Pocket>  (627) 
nan

>  <ATP_Site>  (627) 
nan

>  <Peripheral>  (627) 
nan

>  <Num_H_Atoms_ProtBoundConf>  (627) 
nan

>  <Num_Resolved_Atoms>  (627) 
nan

>  <Num_Not_Resolved_Atoms>  (627) 
nan

$$$$
CHEMBL1419805
     RDKit          3D

  0  0  0  0  0  0  0  0  0  0999 V3000
M  V30 BEGIN CTAB
M  V30 COUNTS 29 30 0 0 0
M  V30 BEGIN ATOM
M  V30 1 C -1.031041 -3.703538 1.737452 0
M  V30 2 C -0.036434 -3.708458 2.848369 0
M  V30 3 N 1.237239 -3.099859 2.518107 0
M  V30 4 C 1.011301 -1.788312 2.141902 0
M  V30 5 S 0.793628 -1.174197 0.470578 0
M  V30 6 C 0.558997 0.509513 0.875296 0
M  V30 7 C 0.320828 1.582075 -0.049206 0
M  V30 8 O 0.124267 2.792416 0.127634 0
M  V30 9 C 0.297564 1.231327 -1.466254 0
M  V30 10 C 0.062876 2.031387 -2.611773 0
M  V30 11 C 0.103806 1.449898 -3.834445 0
M  V30 12 C 0.380644 0.032510 -3.996834 0
M  V30 13 S 0.602398 -0.490196 -2.155188 0
M  V30 14 C 0.646841 0.563538 2.205411 0
M  V30 15 N 0.501281 1.816000 2.911647 0
M  V30 16 C 0.880401 -0.603673 2.896478 0
M  V30 17 C 1.003787 -0.725026 4.336317 0
M  V30 18 N 1.124051 -0.829311 5.506393 0
M  V30 19 H -1.686722 -4.610795 1.821740 0
M  V30 20 H -1.735888 -2.835984 1.904440 0
M  V30 21 H -0.592978 -3.678437 0.734849 0
M  V30 22 H -0.445408 -3.180613 3.735299 0
M  V30 23 H 0.187809 -4.778398 3.117968 0
M  V30 24 H 2.164481 -3.600890 2.566661 0
M  V30 25 H -0.145814 3.079190 -2.524352 0
M  V30 26 H -0.048413 1.908398 -4.791086 0
M  V30 27 H 0.482365 -0.679771 -4.670735 0
M  V30 28 H 1.398801 2.142166 3.346034 0
M  V30 29 H -0.437768 2.296643 2.945992 0
M  V30 END ATOM
M  V30 BEGIN BOND
M  V30 1 1 1 2
M  V30 2 1 2 3
M  V30 3 1 3 4
M  V30 4 1 4 5
M  V30 5 1 5 6
M  V30 6 1 6 7
M  V30 7 2 7 8
M  V30 8 1 7 9
M  V30 9 2 9 10
M  V30 10 1 10 11
M  V30 11 2 11 12
M  V30 12 1 12 13
M  V30 13 2 6 14
M  V30 14 1 14 15
M  V30 15 1 14 16
M  V30 16 1 16 17
M  V30 17 3 17 18
M  V30 18 2 16 4
M  V30 19 1 13 9
M  V30 20 1 1 19
M  V30 21 1 1 20
M  V30 22 1 1 21
M  V30 23 1 2 22
M  V30 24 1 2 23
M  V30 25 1 3 24
M  V30 26 1 10 25
M  V30 27 1 11 26
M  V30 28 1 12 27
M  V30 29 1 15 28
M  V30 30 1 15 29
M  V30 END BOND
M  V30 END CTAB
M  END
>  <Dataset>  (628) 
ChEMBL_Kinases

>  <Ligand_Instance>  (628) 
nan

>  <PDB_ID>  (628) 
nan

>  <Standardized_SMILES>  (628) 
CCNc1sc(C(=O)c2cccs2)c(N)c1C#N

>  <Name>  (628) 
nan

>  <Pocket>  (628) 
nan

>  <ATP_Site>  (628) 
nan

>  <Peripheral>  (628) 
nan

>  <Num_H_Atoms_ProtBoundConf>  (628) 
nan

>  <Num_Resolved_Atoms>  (628) 
nan

>  <Num_Not_Resolved_Atoms>  (628) 
nan

$$$$
CHEMBL1419235
     RDKit          3D

  0  0  0  0  0  0  0  0  0  0999 V3000
M  V30 BEGIN CTAB
M  V30 COUNTS 44 47 0 0 0
M  V30 BEGIN ATOM
M  V30 1 C -1.146552 -5.688917 3.189778 0
M  V30 2 C -0.827770 -4.546658 2.327994 0
M  V30 3 C 0.260496 -4.531187 1.467739 0
M  V30 4 C 0.481717 -3.423003 0.685720 0
M  V30 5 C -0.378246 -2.322657 0.754300 0
M  V30 6 N -0.163686 -1.261165 -0.009489 0
M  V30 7 C -0.982948 -0.190119 0.030632 0
M  V30 8 N -0.569951 0.831035 -0.919682 0
M  V30 9 C -0.435521 2.276528 -0.928880 0
M  V30 10 C 1.012731 2.705525 -1.191686 0
M  V30 11 N 1.754406 1.434912 -1.099360 0
M  V30 12 C 2.597049 0.791533 -0.153998 0
M  V30 13 O 3.178589 -0.319389 -0.272400 0
M  V30 14 C 2.867765 1.420935 1.134892 0
M  V30 15 C 3.850213 1.288676 2.076976 0
M  V30 16 C 3.816944 2.026043 3.206284 0
M  V30 17 C 2.730865 2.940763 3.387331 0
M  V30 18 S 1.762950 2.679772 1.839071 0
M  V30 19 C 1.418325 0.694979 -2.330964 0
M  V30 20 C -0.087394 0.416970 -2.257831 0
M  V30 21 C -2.083334 -0.138267 0.862719 0
M  V30 22 C -2.869130 1.040394 0.814321 0
M  V30 23 N -3.524804 2.003771 0.767600 0
M  V30 24 C -2.335939 -1.227047 1.673569 0
M  V30 25 C -1.477281 -2.320293 1.615278 0
M  V30 26 C -1.669154 -3.430285 2.374514 0
M  V30 27 H -0.815791 -6.641550 2.732607 0
M  V30 28 H -0.641059 -5.543854 4.172974 0
M  V30 29 H -2.262992 -5.690210 3.343378 0
M  V30 30 H 0.930165 -5.392628 1.421555 0
M  V30 31 H 1.331915 -3.387497 -0.000267 0
M  V30 32 H -1.033011 2.716952 -1.738896 0
M  V30 33 H -0.669684 2.684778 0.072337 0
M  V30 34 H 1.112163 3.134526 -2.216922 0
M  V30 35 H 1.370092 3.451038 -0.461208 0
M  V30 36 H 4.601164 0.556472 1.826031 0
M  V30 37 H 4.596101 1.930942 3.968454 0
M  V30 38 H 2.673006 3.568386 4.329373 0
M  V30 39 H 1.557088 1.392885 -3.170641 0
M  V30 40 H 2.025588 -0.213859 -2.381577 0
M  V30 41 H -0.659620 0.895704 -3.059666 0
M  V30 42 H -0.179297 -0.674550 -2.373747 0
M  V30 43 H -3.189517 -1.196697 2.328660 0
M  V30 44 H -2.528766 -3.414510 3.040713 0
M  V30 END ATOM
M  V30 BEGIN BOND
M  V30 1 1 1 2
M  V30 2 2 2 3
M  V30 3 1 3 4
M  V30 4 2 4 5
M  V30 5 1 5 6
M  V30 6 2 6 7
M  V30 7 1 7 8
M  V30 8 1 8 9
M  V30 9 1 9 10
M  V30 10 1 10 11
M  V30 11 1 11 12
M  V30 12 2 12 13
M  V30 13 1 12 14
M  V30 14 2 14 15
M  V30 15 1 15 16
M  V30 16 2 16 17
M  V30 17 1 17 18
M  V30 18 1 11 19
M  V30 19 1 19 20
M  V30 20 1 7 21
M  V30 21 1 21 22
M  V30 22 3 22 23
M  V30 23 2 21 24
M  V30 24 1 24 25
M  V30 25 2 25 26
M  V30 26 1 26 2
M  V30 27 1 25 5
M  V30 28 1 20 8
M  V30 29 1 18 14
M  V30 30 1 1 27
M  V30 31 1 1 28
M  V30 32 1 1 29
M  V30 33 1 3 30
M  V30 34 1 4 31
M  V30 35 1 9 32
M  V30 36 1 9 33
M  V30 37 1 10 34
M  V30 38 1 10 35
M  V30 39 1 15 36
M  V30 40 1 16 37
M  V30 41 1 17 38
M  V30 42 1 19 39
M  V30 43 1 19 40
M  V30 44 1 20 41
M  V30 45 1 20 42
M  V30 46 1 24 43
M  V30 47 1 26 44
M  V30 END BOND
M  V30 END CTAB
M  END
>  <Dataset>  (629) 
ChEMBL_Kinases

>  <Ligand_Instance>  (629) 
nan

>  <PDB_ID>  (629) 
nan

>  <Standardized_SMILES>  (629) 
Cc1ccc2nc(N3CCN(C(=O)c4cccs4)CC3)c(C#N)cc2c1

>  <Name>  (629) 
nan

>  <Pocket>  (629) 
nan

>  <ATP_Site>  (629) 
nan

>  <Peripheral>  (629) 
nan

>  <Num_H_Atoms_ProtBoundConf>  (629) 
nan

>  <Num_Resolved_Atoms>  (629) 
nan

>  <Num_Not_Resolved_Atoms>  (629) 
nan

$$$$
CHEMBL1419327
     RDKit          3D

  0  0  0  0  0  0  0  0  0  0999 V3000
M  V30 BEGIN CTAB
M  V30 COUNTS 52 57 0 0 0
M  V30 BEGIN ATOM
M  V30 1 O -1.813290 -2.886470 -0.323610 0
M  V30 2 C -1.233670 -2.170779 -1.381663 0
M  V30 3 C -0.017708 -1.638922 -1.359530 0
M  V30 4 C 0.605147 -0.895063 -2.438582 0
M  V30 5 N 1.800826 -0.454289 -2.362185 0
M  V30 6 C 2.597572 -0.660959 -1.218781 0
M  V30 7 N 3.852899 -0.180977 -1.242010 0
M  V30 8 C 4.673849 -0.363834 -0.192969 0
M  V30 9 O 5.961629 0.161668 -0.287447 0
M  V30 10 N 4.227044 -1.029783 0.876206 0
M  V30 11 C 2.957171 -1.517565 0.905630 0
M  V30 12 O 2.629661 -2.177017 2.055431 0
M  V30 13 C 2.087395 -1.350520 -0.147654 0
M  V30 14 C 0.683239 -1.887035 -0.063629 0
M  V30 15 C 0.002761 -1.169321 1.033204 0
M  V30 16 C -0.205824 0.179169 0.722631 0
M  V30 17 N -0.826971 0.729345 1.779149 0
M  V30 18 C -1.313735 2.023686 2.113031 0
M  V30 19 C -2.464889 2.560943 1.576832 0
M  V30 20 C -2.811077 3.822536 1.993364 0
M  V30 21 C -2.069453 4.549431 2.902414 0
M  V30 22 C -0.910644 4.001472 3.438527 0
M  V30 23 C -0.546108 2.739650 3.034908 0
M  V30 24 N -0.979313 -0.214426 2.655390 0
M  V30 25 C -0.503166 -1.399948 2.282979 0
M  V30 26 C -0.450095 -2.653386 2.916339 0
M  V30 27 C -0.021636 -3.898399 2.806166 0
M  V30 28 C -0.189675 -4.867299 3.729015 0
M  V30 29 C -0.915845 -4.442032 4.933650 0
M  V30 30 S -1.246943 -2.672301 4.531665 0
M  V30 31 C -0.256593 -0.691144 -3.630429 0
M  V30 32 C -1.181375 -1.847618 -3.836508 0
M  V30 33 C -2.055706 -1.999654 -2.623415 0
M  V30 34 H -2.689973 -2.515004 0.031113 0
M  V30 35 H 6.105011 1.156450 -0.443311 0
M  V30 36 H 3.279232 -2.891492 2.406923 0
M  V30 37 H 0.719064 -2.961197 0.131758 0
M  V30 38 H -0.006011 0.867349 -0.111575 0
M  V30 39 H -3.017471 1.961981 0.868723 0
M  V30 40 H -3.732465 4.199375 1.536424 0
M  V30 41 H -2.422758 5.545110 3.174157 0
M  V30 42 H -0.326301 4.578420 4.157308 0
M  V30 43 H 0.372459 2.392177 3.505445 0
M  V30 44 H 0.513198 -4.213450 1.933166 0
M  V30 45 H 0.121895 -5.897178 3.724264 0
M  V30 46 H -1.135837 -5.178785 5.820597 0
M  V30 47 H 0.343165 -0.478597 -4.543381 0
M  V30 48 H -0.900350 0.192900 -3.403282 0
M  V30 49 H -0.659870 -2.795119 -4.069278 0
M  V30 50 H -1.849182 -1.639719 -4.687956 0
M  V30 51 H -2.651475 -1.078717 -2.481388 0
M  V30 52 H -2.763469 -2.840205 -2.744136 0
M  V30 END ATOM
M  V30 BEGIN BOND
M  V30 1 1 1 2
M  V30 2 2 2 3
M  V30 3 1 3 4
M  V30 4 2 4 5
M  V30 5 1 5 6
M  V30 6 2 6 7
M  V30 7 1 7 8
M  V30 8 1 8 9
M  V30 9 2 8 10
M  V30 10 1 10 11
M  V30 11 1 11 12
M  V30 12 2 11 13
M  V30 13 1 13 14
M  V30 14 1 14 15
M  V30 15 2 15 16
M  V30 16 1 16 17
M  V30 17 1 17 18
M  V30 18 2 18 19
M  V30 19 1 19 20
M  V30 20 2 20 21
M  V30 21 1 21 22
M  V30 22 2 22 23
M  V30 23 1 17 24
M  V30 24 2 24 25
M  V30 25 1 25 26
M  V30 26 2 26 27
M  V30 27 1 27 28
M  V30 28 2 28 29
M  V30 29 1 29 30
M  V30 30 1 4 31
M  V30 31 1 31 32
M  V30 32 1 32 33
M  V30 33 1 33 2
M  V30 34 1 14 3
M  V30 35 1 25 15
M  V30 36 1 30 26
M  V30 37 1 13 6
M  V30 38 1 23 18
M  V30 39 1 1 34
M  V30 40 1 9 35
M  V30 41 1 12 36
M  V30 42 1 14 37
M  V30 43 1 16 38
M  V30 44 1 19 39
M  V30 45 1 20 40
M  V30 46 1 21 41
M  V30 47 1 22 42
M  V30 48 1 23 43
M  V30 49 1 27 44
M  V30 50 1 28 45
M  V30 51 1 29 46
M  V30 52 1 31 47
M  V30 53 1 31 48
M  V30 54 1 32 49
M  V30 55 1 32 50
M  V30 56 1 33 51
M  V30 57 1 33 52
M  V30 END BOND
M  V30 END CTAB
M  END
>  <Dataset>  (630) 
ChEMBL_Kinases

>  <Ligand_Instance>  (630) 
nan

>  <PDB_ID>  (630) 
nan

>  <Standardized_SMILES>  (630) 
OC1=C2C(=Nc3nc(O)nc(O)c3C2c2cn(-c3ccccc3)nc2-c2cccs2)CCC1

>  <Name>  (630) 
nan

>  <Pocket>  (630) 
nan

>  <ATP_Site>  (630) 
nan

>  <Peripheral>  (630) 
nan

>  <Num_H_Atoms_ProtBoundConf>  (630) 
nan

>  <Num_Resolved_Atoms>  (630) 
nan

>  <Num_Not_Resolved_Atoms>  (630) 
nan

$$$$
CHEMBL1419387
     RDKit          3D

  0  0  0  0  0  0  0  0  0  0999 V3000
M  V30 BEGIN CTAB
M  V30 COUNTS 49 53 0 0 0
M  V30 BEGIN ATOM
M  V30 1 C -1.830489 1.695502 2.703235 0
M  V30 2 C -0.365542 1.501807 3.057943 0
M  V30 3 C 0.023477 0.075258 2.802429 0
M  V30 4 N 1.300733 -0.335922 3.019108 0
M  V30 5 C 1.683237 -1.623029 2.802150 0
M  V30 6 S 3.414321 -1.978668 3.106721 0
M  V30 7 C 4.319779 -1.716388 1.519314 0
M  V30 8 C 3.411827 -0.987703 0.578485 0
M  V30 9 O 2.932273 -1.609440 -0.428776 0
M  V30 10 N 3.050801 0.370003 0.756563 0
M  V30 11 C 2.181471 1.077644 -0.117772 0
M  V30 12 C 2.254026 2.318307 -0.701518 0
M  V30 13 C 1.212832 2.732631 -1.503165 0
M  V30 14 C 0.100262 1.961981 -1.748837 0
M  V30 15 C 0.000901 0.694306 -1.167796 0
M  V30 16 C 1.053750 0.286091 -0.362483 0
M  V30 17 O -1.135501 -0.042239 -1.443402 0
M  V30 18 C -2.334177 0.682373 -1.738195 0
M  V30 19 C -2.063202 1.741691 -2.780358 0
M  V30 20 O -0.886355 2.463590 -2.562431 0
M  V30 21 C 0.724861 -2.494168 2.354967 0
M  V30 22 O 0.886724 -3.777226 2.086394 0
M  V30 23 C -0.286291 -4.261857 1.678022 0
M  V30 24 C -0.740808 -5.495598 1.267166 0
M  V30 25 C -2.059639 -5.666221 0.899797 0
M  V30 26 C -2.973100 -4.605398 0.929899 0
M  V30 27 C -2.526634 -3.368473 1.338973 0
M  V30 28 C -1.202246 -3.210767 1.705108 0
M  V30 29 C -0.571308 -2.059373 2.139288 0
M  V30 30 N -0.914958 -0.781456 2.363126 0
M  V30 31 H -2.462363 1.054477 3.315719 0
M  V30 32 H -2.113888 2.756422 2.862423 0
M  V30 33 H -1.888986 1.448049 1.602501 0
M  V30 34 H -0.193748 1.744324 4.139576 0
M  V30 35 H 0.228113 2.191844 2.443975 0
M  V30 36 H 5.273861 -1.200221 1.689889 0
M  V30 37 H 4.543236 -2.705316 1.091180 0
M  V30 38 H 3.444099 0.886922 1.572823 0
M  V30 39 H 3.174770 2.809700 -0.423041 0
M  V30 40 H 1.382585 3.731561 -1.908885 0
M  V30 41 H 0.853347 -0.719614 0.029672 0
M  V30 42 H -2.751263 1.107643 -0.789518 0
M  V30 43 H -3.055442 -0.031179 -2.183337 0
M  V30 44 H -2.985633 2.385719 -2.816245 0
M  V30 45 H -1.962358 1.202404 -3.761905 0
M  V30 46 H -0.011859 -6.321029 1.245259 0
M  V30 47 H -2.358240 -6.672617 0.582672 0
M  V30 48 H -3.984227 -4.813674 0.632087 0
M  V30 49 H -3.200126 -2.550124 1.366797 0
M  V30 END ATOM
M  V30 BEGIN BOND
M  V30 1 1 1 2
M  V30 2 1 2 3
M  V30 3 2 3 4
M  V30 4 1 4 5
M  V30 5 1 5 6
M  V30 6 1 6 7
M  V30 7 1 7 8
M  V30 8 2 8 9
M  V30 9 1 8 10
M  V30 10 1 10 11
M  V30 11 2 11 12
M  V30 12 1 12 13
M  V30 13 2 13 14
M  V30 14 1 14 15
M  V30 15 2 15 16
M  V30 16 1 15 17
M  V30 17 1 17 18
M  V30 18 1 18 19
M  V30 19 1 19 20
M  V30 20 2 5 21
M  V30 21 1 21 22
M  V30 22 1 22 23
M  V30 23 2 23 24
M  V30 24 1 24 25
M  V30 25 2 25 26
M  V30 26 1 26 27
M  V30 27 2 27 28
M  V30 28 1 28 29
M  V30 29 2 29 30
M  V30 30 1 30 3
M  V30 31 1 16 11
M  V30 32 1 29 21
M  V30 33 1 20 14
M  V30 34 1 28 23
M  V30 35 1 1 31
M  V30 36 1 1 32
M  V30 37 1 1 33
M  V30 38 1 2 34
M  V30 39 1 2 35
M  V30 40 1 7 36
M  V30 41 1 7 37
M  V30 42 1 10 38
M  V30 43 1 12 39
M  V30 44 1 13 40
M  V30 45 1 16 41
M  V30 46 1 18 42
M  V30 47 1 18 43
M  V30 48 1 19 44
M  V30 49 1 19 45
M  V30 50 1 24 46
M  V30 51 1 25 47
M  V30 52 1 26 48
M  V30 53 1 27 49
M  V30 END BOND
M  V30 END CTAB
M  END
>  <Dataset>  (631) 
ChEMBL_Kinases

>  <Ligand_Instance>  (631) 
nan

>  <PDB_ID>  (631) 
nan

>  <Standardized_SMILES>  (631) 
CCc1nc(SCC(=O)Nc2ccc3c(c2)OCCO3)c2oc3ccccc3c2n1

>  <Name>  (631) 
nan

>  <Pocket>  (631) 
nan

>  <ATP_Site>  (631) 
nan

>  <Peripheral>  (631) 
nan

>  <Num_H_Atoms_ProtBoundConf>  (631) 
nan

>  <Num_Resolved_Atoms>  (631) 
nan

>  <Num_Not_Resolved_Atoms>  (631) 
nan

$$$$
CHEMBL1419389
     RDKit          3D

  0  0  0  0  0  0  0  0  0  0999 V3000
M  V30 BEGIN CTAB
M  V30 COUNTS 51 52 0 0 0
M  V30 BEGIN ATOM
M  V30 1 C 1.398981 -3.557250 -0.074434 0
M  V30 2 C 2.873096 -3.797565 -0.234677 0
M  V30 3 N 3.695142 -2.638126 -0.093444 0
M  V30 4 C 3.377199 -1.586400 -0.990245 0
M  V30 5 C 4.550164 -1.015666 -1.724587 0
M  V30 6 S 4.116618 -2.212314 1.483505 0
M  V30 7 O 5.598813 -1.960644 1.652169 0
M  V30 8 O 3.717332 -3.197775 2.521508 0
M  V30 9 C 3.296108 -0.710160 1.854844 0
M  V30 10 C 3.926482 0.525149 1.811950 0
M  V30 11 C 3.318879 1.734605 2.089913 0
M  V30 12 C 1.970435 1.729063 2.441538 0
M  V30 13 C 1.368197 0.503527 2.477203 0
M  V30 14 N -0.033981 0.348388 2.815485 0
M  V30 15 C -0.821911 0.496029 1.677018 0
M  V30 16 O -0.254711 0.745002 0.541275 0
M  V30 17 C -1.931257 0.569301 0.794649 0
M  V30 18 C -2.731019 0.148229 2.010660 0
M  V30 19 C -4.147713 -0.078917 2.138125 0
M  V30 20 C -4.931247 0.108840 0.982825 0
M  V30 21 S -6.672796 -0.100547 0.670185 0
M  V30 22 C -7.473805 -0.816424 2.142831 0
M  V30 23 C -4.287165 0.492051 -0.168147 0
M  V30 24 C -2.966552 0.637673 -0.028775 0
M  V30 25 O -1.993112 1.027489 -1.012456 0
M  V30 26 C -2.410521 1.301833 -2.300911 0
M  V30 27 C 1.943714 -0.715797 2.207456 0
M  V30 28 H 1.084603 -3.755015 0.995460 0
M  V30 29 H 0.859659 -4.343144 -0.643255 0
M  V30 30 H 1.033781 -2.586989 -0.408731 0
M  V30 31 H 3.023624 -4.204140 -1.252900 0
M  V30 32 H 3.166155 -4.599748 0.467162 0
M  V30 33 H 2.660957 -1.991577 -1.754670 0
M  V30 34 H 2.865078 -0.778381 -0.452638 0
M  V30 35 H 4.218016 -0.735810 -2.743729 0
M  V30 36 H 4.932362 -0.051170 -1.286038 0
M  V30 37 H 5.376686 -1.745755 -1.862235 0
M  V30 38 H 4.977659 0.564236 1.538668 0
M  V30 39 H 3.886951 2.654579 2.031765 0
M  V30 40 H 1.440801 2.625929 2.668759 0
M  V30 41 H -0.796787 0.179615 3.496147 0
M  V30 42 H -2.649215 -0.126545 3.123661 0
M  V30 43 H -4.922195 -0.369227 2.858473 0
M  V30 44 H -6.680265 -1.351499 2.738011 0
M  V30 45 H -7.891455 -0.045683 2.813764 0
M  V30 46 H -8.228432 -1.592213 1.832146 0
M  V30 47 H -4.554219 0.707856 -1.167673 0
M  V30 48 H -2.470822 0.383022 -2.950530 0
M  V30 49 H -3.400994 1.782281 -2.370057 0
M  V30 50 H -1.667339 1.944032 -2.865671 0
M  V30 51 H 1.487723 -1.670955 2.233306 0
M  V30 END ATOM
M  V30 BEGIN BOND
M  V30 1 1 1 2
M  V30 2 1 2 3
M  V30 3 1 3 4
M  V30 4 1 4 5
M  V30 5 1 3 6
M  V30 6 2 6 7
M  V30 7 2 6 8
M  V30 8 1 6 9
M  V30 9 2 9 10
M  V30 10 1 10 11
M  V30 11 2 11 12
M  V30 12 1 12 13
M  V30 13 1 13 14
M  V30 14 1 14 15
M  V30 15 2 15 16
M  V30 16 1 15 17
M  V30 17 2 17 18
M  V30 18 1 18 19
M  V30 19 2 19 20
M  V30 20 1 20 21
M  V30 21 1 21 22
M  V30 22 1 20 23
M  V30 23 2 23 24
M  V30 24 1 24 25
M  V30 25 1 25 26
M  V30 26 2 13 27
M  V30 27 1 27 9
M  V30 28 1 24 17
M  V30 29 1 1 28
M  V30 30 1 1 29
M  V30 31 1 1 30
M  V30 32 1 2 31
M  V30 33 1 2 32
M  V30 34 1 4 33
M  V30 35 1 4 34
M  V30 36 1 5 35
M  V30 37 1 5 36
M  V30 38 1 5 37
M  V30 39 1 10 38
M  V30 40 1 11 39
M  V30 41 1 12 40
M  V30 42 1 14 41
M  V30 43 1 18 42
M  V30 44 1 19 43
M  V30 45 1 22 44
M  V30 46 1 22 45
M  V30 47 1 22 46
M  V30 48 1 23 47
M  V30 49 1 26 48
M  V30 50 1 26 49
M  V30 51 1 26 50
M  V30 52 1 27 51
M  V30 END BOND
M  V30 END CTAB
M  END
>  <Dataset>  (632) 
ChEMBL_Kinases

>  <Ligand_Instance>  (632) 
nan

>  <PDB_ID>  (632) 
nan

>  <Standardized_SMILES>  (632) 
CCN(CC)S(=O)(=O)c1cccc(NC(=O)c2ccc(SC)cc2OC)c1

>  <Name>  (632) 
nan

>  <Pocket>  (632) 
nan

>  <ATP_Site>  (632) 
nan

>  <Peripheral>  (632) 
nan

>  <Num_H_Atoms_ProtBoundConf>  (632) 
nan

>  <Num_Resolved_Atoms>  (632) 
nan

>  <Num_Not_Resolved_Atoms>  (632) 
nan

$$$$
CHEMBL1419420
     RDKit          3D

  0  0  0  0  0  0  0  0  0  0999 V3000
M  V30 BEGIN CTAB
M  V30 COUNTS 44 45 0 0 0
M  V30 BEGIN ATOM
M  V30 1 C -0.203408 -5.542160 2.909928 0
M  V30 2 O 0.288704 -4.394630 2.472186 0
M  V30 3 C 0.812000 -3.276847 2.129388 0
M  V30 4 C 1.404959 -2.126809 1.867561 0
M  V30 5 C 1.426036 -1.236448 0.863214 0
M  V30 6 C 0.637289 -1.571280 -0.187295 0
M  V30 7 C 1.036138 -0.912071 -1.578510 0
M  V30 8 C 0.791191 0.507156 -1.733241 0
M  V30 9 N 1.535299 1.357384 -0.851228 0
M  V30 10 C 2.983978 1.474048 -0.677068 0
M  V30 11 O 2.570541 0.693104 -1.530950 0
M  V30 12 C 3.683011 2.414085 0.342206 0
M  V30 13 S 2.920700 3.807747 1.134663 0
M  V30 14 C 1.364803 3.539872 2.065293 0
M  V30 15 N 0.788332 3.276980 3.174381 0
M  V30 16 C -0.494824 3.225017 3.386244 0
M  V30 17 O -1.545688 3.038425 4.187350 0
M  V30 18 C -1.176628 3.513041 2.131078 0
M  V30 19 C -0.600394 3.818342 0.802313 0
M  V30 20 O -1.663737 4.047744 -0.185897 0
M  V30 21 N 0.790116 3.796272 0.941560 0
M  V30 22 C -0.183770 -2.737408 -0.234777 0
M  V30 23 C 0.005941 -3.411210 0.916270 0
M  V30 24 O -0.880355 -4.231549 0.486443 0
M  V30 25 C -1.788147 -5.005049 -0.048269 0
M  V30 26 H 0.226663 -6.223910 3.586273 0
M  V30 27 H -0.712904 -6.115363 2.031969 0
M  V30 28 H -1.245268 -5.172768 3.551410 0
M  V30 29 H 1.907849 -2.031160 2.916542 0
M  V30 30 H 2.064473 -0.346164 1.007446 0
M  V30 31 H 0.401041 -1.516545 -2.349248 0
M  V30 32 H 2.050832 -1.345627 -1.891717 0
M  V30 33 H -0.338081 0.562344 -1.331731 0
M  V30 34 H 0.707246 0.830845 -2.694961 0
M  V30 35 H 0.835559 1.908664 -0.221844 0
M  V30 36 H 4.256003 1.766003 1.044365 0
M  V30 37 H 4.577651 2.755212 -0.281920 0
M  V30 38 H -2.390518 3.683571 4.203967 0
M  V30 39 H -2.232578 3.473036 1.867894 0
M  V30 40 H -1.933172 3.308400 -0.891951 0
M  V30 41 H -0.795271 -2.759123 -1.261774 0
M  V30 42 H -2.268763 -5.868562 0.404561 0
M  V30 43 H -2.681420 -4.272192 -0.471666 0
M  V30 44 H -1.533544 -5.371236 -1.122869 0
M  V30 END ATOM
M  V30 BEGIN BOND
M  V30 1 1 1 2
M  V30 2 1 2 3
M  V30 3 2 3 4
M  V30 4 1 4 5
M  V30 5 2 5 6
M  V30 6 1 6 7
M  V30 7 1 7 8
M  V30 8 1 8 9
M  V30 9 1 9 10
M  V30 10 2 10 11
M  V30 11 1 10 12
M  V30 12 1 12 13
M  V30 13 1 13 14
M  V30 14 2 14 15
M  V30 15 1 15 16
M  V30 16 1 16 17
M  V30 17 2 16 18
M  V30 18 1 18 19
M  V30 19 1 19 20
M  V30 20 2 19 21
M  V30 21 1 6 22
M  V30 22 2 22 23
M  V30 23 1 23 24
M  V30 24 1 24 25
M  V30 25 1 23 3
M  V30 26 1 21 14
M  V30 27 1 1 26
M  V30 28 1 1 27
M  V30 29 1 1 28
M  V30 30 1 4 29
M  V30 31 1 5 30
M  V30 32 1 7 31
M  V30 33 1 7 32
M  V30 34 1 8 33
M  V30 35 1 8 34
M  V30 36 1 9 35
M  V30 37 1 12 36
M  V30 38 1 12 37
M  V30 39 1 17 38
M  V30 40 1 18 39
M  V30 41 1 20 40
M  V30 42 1 22 41
M  V30 43 1 25 42
M  V30 44 1 25 43
M  V30 45 1 25 44
M  V30 END BOND
M  V30 END CTAB
M  END
>  <Dataset>  (633) 
ChEMBL_Kinases

>  <Ligand_Instance>  (633) 
nan

>  <PDB_ID>  (633) 
nan

>  <Standardized_SMILES>  (633) 
COc1ccc(CCNC(=O)CSc2nc(O)cc(O)n2)cc1OC

>  <Name>  (633) 
nan

>  <Pocket>  (633) 
nan

>  <ATP_Site>  (633) 
nan

>  <Peripheral>  (633) 
nan

>  <Num_H_Atoms_ProtBoundConf>  (633) 
nan

>  <Num_Resolved_Atoms>  (633) 
nan

>  <Num_Not_Resolved_Atoms>  (633) 
nan

$$$$
CHEMBL1419459
     RDKit          3D

  0  0  0  0  0  0  0  0  0  0999 V3000
M  V30 BEGIN CTAB
M  V30 COUNTS 40 41 0 0 0
M  V30 BEGIN ATOM
M  V30 1 C 0.377158 -0.972381 4.238680 0
M  V30 2 O 0.686583 -0.909724 2.877055 0
M  V30 3 C 0.919797 -2.070926 2.174108 0
M  V30 4 C 0.852043 -3.293229 2.804142 0
M  V30 5 C 1.084213 -4.466114 2.121056 0
M  V30 6 C 1.389763 -4.402436 0.779741 0
M  V30 7 C 1.652349 -5.626023 -0.019621 0
M  V30 8 C 1.441719 -3.150057 0.208474 0
M  V30 9 C 1.217500 -1.916239 0.838829 0
M  V30 10 S 1.319065 -0.466613 -0.098245 0
M  V30 11 O 1.849710 -0.816625 -1.474895 0
M  V30 12 O 2.366237 0.472653 0.505571 0
M  V30 13 N -0.097641 0.420431 -0.279761 0
M  V30 14 C -0.732298 0.956415 0.847057 0
M  V30 15 C -1.716984 2.066446 0.545685 0
M  V30 16 C -1.196700 3.056195 -0.442776 0
M  V30 17 C -0.153769 3.984963 0.173320 0
M  V30 18 C -0.613240 2.404954 -1.671599 0
M  V30 19 C -0.400543 0.936375 -1.560293 0
M  V30 20 H 1.217971 -1.376309 4.851805 0
M  V30 21 H 0.156522 0.052956 4.607744 0
M  V30 22 H -0.540376 -1.581178 4.411742 0
M  V30 23 H 0.607398 -3.309084 3.868512 0
M  V30 24 H 1.022549 -5.393431 2.643437 0
M  V30 25 H 2.739531 -5.876753 -0.025734 0
M  V30 26 H 1.355597 -5.493417 -1.069141 0
M  V30 27 H 1.097167 -6.490302 0.424853 0
M  V30 28 H 1.686399 -3.145979 -0.853194 0
M  V30 29 H -1.296827 0.173056 1.390227 0
M  V30 30 H 0.040385 1.349439 1.547023 0
M  V30 31 H -2.677765 1.649980 0.246183 0
M  V30 32 H -1.861000 2.619487 1.519190 0
M  V30 33 H -2.048271 3.707080 -0.730861 0
M  V30 34 H 0.764814 3.369796 0.313328 0
M  V30 35 H 0.033653 4.835506 -0.500409 0
M  V30 36 H -0.487377 4.323874 1.177184 0
M  V30 37 H 0.337048 2.905550 -1.938500 0
M  V30 38 H -1.320130 2.566975 -2.537549 0
M  V30 39 H -1.309299 0.389508 -1.943304 0
M  V30 40 H 0.440530 0.666736 -2.263236 0
M  V30 END ATOM
M  V30 BEGIN BOND
M  V30 1 1 1 2
M  V30 2 1 2 3
M  V30 3 2 3 4
M  V30 4 1 4 5
M  V30 5 2 5 6
M  V30 6 1 6 7
M  V30 7 1 6 8
M  V30 8 2 8 9
M  V30 9 1 9 10
M  V30 10 2 10 11
M  V30 11 2 10 12
M  V30 12 1 10 13
M  V30 13 1 13 14
M  V30 14 1 14 15
M  V30 15 1 15 16
M  V30 16 1 16 17
M  V30 17 1 16 18
M  V30 18 1 18 19
M  V30 19 1 9 3
M  V30 20 1 19 13
M  V30 21 1 1 20
M  V30 22 1 1 21
M  V30 23 1 1 22
M  V30 24 1 4 23
M  V30 25 1 5 24
M  V30 26 1 7 25
M  V30 27 1 7 26
M  V30 28 1 7 27
M  V30 29 1 8 28
M  V30 30 1 14 29
M  V30 31 1 14 30
M  V30 32 1 15 31
M  V30 33 1 15 32
M  V30 34 1 16 33
M  V30 35 1 17 34
M  V30 36 1 17 35
M  V30 37 1 17 36
M  V30 38 1 18 37
M  V30 39 1 18 38
M  V30 40 1 19 39
M  V30 41 1 19 40
M  V30 END BOND
M  V30 END CTAB
M  END
>  <Dataset>  (634) 
ChEMBL_Kinases

>  <Ligand_Instance>  (634) 
nan

>  <PDB_ID>  (634) 
nan

>  <Standardized_SMILES>  (634) 
COc1ccc(C)cc1S(=O)(=O)N1CCC(C)CC1

>  <Name>  (634) 
nan

>  <Pocket>  (634) 
nan

>  <ATP_Site>  (634) 
nan

>  <Peripheral>  (634) 
nan

>  <Num_H_Atoms_ProtBoundConf>  (634) 
nan

>  <Num_Resolved_Atoms>  (634) 
nan

>  <Num_Not_Resolved_Atoms>  (634) 
nan

$$$$
CHEMBL1419576
     RDKit          3D

  0  0  0  0  0  0  0  0  0  0999 V3000
M  V30 BEGIN CTAB
M  V30 COUNTS 43 45 0 0 0
M  V30 BEGIN ATOM
M  V30 1 C -1.330205 -4.636558 1.964886 0
M  V30 2 O -0.493863 -3.591144 1.498821 0
M  V30 3 C 0.515847 -3.085411 2.301633 0
M  V30 4 C 0.853287 -3.485591 3.597503 0
M  V30 5 C 1.900735 -2.858982 4.246230 0
M  V30 6 C 2.630074 -1.845296 3.655594 0
M  V30 7 C 2.284559 -1.451782 2.358027 0
M  V30 8 C 1.233843 -2.076685 1.700668 0
M  V30 9 C 1.038272 -1.523779 0.370062 0
M  V30 10 O 1.655268 -2.031206 -0.613334 0
M  V30 11 N 0.261640 -0.460456 -0.171051 0
M  V30 12 C 0.381378 -0.267426 -1.585121 0
M  V30 13 C 1.431182 0.634040 -1.915725 0
M  V30 14 C 1.564210 1.979533 -2.106968 0
M  V30 15 C 2.774673 2.540289 -2.430044 0
M  V30 16 C 3.857617 1.661978 -2.551685 0
M  V30 17 S 3.165984 0.009956 -2.205556 0
M  V30 18 C -0.444218 0.116588 0.930933 0
M  V30 19 C -1.892633 -0.056457 0.766647 0
M  V30 20 C -2.606146 1.242800 0.621753 0
M  V30 21 S -1.649237 2.237383 1.778866 0
M  V30 22 O -1.726645 3.680385 1.445643 0
M  V30 23 O -1.941712 1.902139 3.190257 0
M  V30 24 C -0.073251 1.520431 1.283120 0
M  V30 25 H -1.562451 -4.419188 3.040734 0
M  V30 26 H -2.279618 -4.625693 1.383479 0
M  V30 27 H -0.811052 -5.607180 1.856365 0
M  V30 28 H 0.241517 -4.278015 3.988462 0
M  V30 29 H 2.050221 -3.268818 5.240134 0
M  V30 30 H 3.431052 -1.418120 4.245521 0
M  V30 31 H 2.906923 -0.655124 1.977404 0
M  V30 32 H -0.565198 0.085754 -2.052821 0
M  V30 33 H 0.551212 -1.264443 -2.077199 0
M  V30 34 H 0.641908 2.527629 -1.979166 0
M  V30 35 H 2.888812 3.603483 -2.583014 0
M  V30 36 H 4.866874 1.965363 -2.801123 0
M  V30 37 H -0.119958 -0.494016 1.829595 0
M  V30 38 H -2.356707 -0.585259 1.644564 0
M  V30 39 H -2.109347 -0.716385 -0.119313 0
M  V30 40 H -2.483813 1.696619 -0.360012 0
M  V30 41 H -3.647973 1.162438 0.977861 0
M  V30 42 H 0.259546 2.156210 0.462925 0
M  V30 43 H 0.682359 1.600615 2.083233 0
M  V30 END ATOM
M  V30 BEGIN BOND
M  V30 1 1 1 2
M  V30 2 1 2 3
M  V30 3 2 3 4
M  V30 4 1 4 5
M  V30 5 2 5 6
M  V30 6 1 6 7
M  V30 7 2 7 8
M  V30 8 1 8 9
M  V30 9 2 9 10
M  V30 10 1 9 11
M  V30 11 1 11 12
M  V30 12 1 12 13
M  V30 13 2 13 14
M  V30 14 1 14 15
M  V30 15 2 15 16
M  V30 16 1 16 17
M  V30 17 1 11 18
M  V30 18 1 18 19
M  V30 19 1 19 20
M  V30 20 1 20 21
M  V30 21 2 21 22
M  V30 22 2 21 23
M  V30 23 1 21 24
M  V30 24 1 8 3
M  V30 25 1 17 13
M  V30 26 1 24 18
M  V30 27 1 1 25
M  V30 28 1 1 26
M  V30 29 1 1 27
M  V30 30 1 4 28
M  V30 31 1 5 29
M  V30 32 1 6 30
M  V30 33 1 7 31
M  V30 34 1 12 32
M  V30 35 1 12 33
M  V30 36 1 14 34
M  V30 37 1 15 35
M  V30 38 1 16 36
M  V30 39 1 18 37
M  V30 40 1 19 38
M  V30 41 1 19 39
M  V30 42 1 20 40
M  V30 43 1 20 41
M  V30 44 1 24 42
M  V30 45 1 24 43
M  V30 END BOND
M  V30 END CTAB
M  END
>  <Dataset>  (635) 
ChEMBL_Kinases

>  <Ligand_Instance>  (635) 
nan

>  <PDB_ID>  (635) 
nan

>  <Standardized_SMILES>  (635) 
COc1ccccc1C(=O)N(Cc1cccs1)C1CCS(=O)(=O)C1

>  <Name>  (635) 
nan

>  <Pocket>  (635) 
nan

>  <ATP_Site>  (635) 
nan

>  <Peripheral>  (635) 
nan

>  <Num_H_Atoms_ProtBoundConf>  (635) 
nan

>  <Num_Resolved_Atoms>  (635) 
nan

>  <Num_Not_Resolved_Atoms>  (635) 
nan

$$$$
CHEMBL1419737
     RDKit          3D

  0  0  0  0  0  0  0  0  0  0999 V3000
M  V30 BEGIN CTAB
M  V30 COUNTS 52 55 0 0 0
M  V30 BEGIN ATOM
M  V30 1 C 3.391124 -6.549192 3.284397 0
M  V30 2 C 3.822520 -5.272834 2.631665 0
M  V30 3 C 3.178769 -4.713833 1.538581 0
M  V30 4 C 3.844501 -3.552561 1.213592 0
M  V30 5 N 3.389185 -2.779206 0.131767 0
M  V30 6 C 3.934258 -1.557007 -0.297634 0
M  V30 7 O 4.921496 -1.349899 0.526654 0
M  V30 8 C 3.950768 -0.426315 -1.183085 0
M  V30 9 S 2.697886 -0.278730 -2.458042 0
M  V30 10 C 1.079445 -0.023755 -1.798049 0
M  V30 11 N 0.707856 1.234256 -1.440785 0
M  V30 12 C -0.514573 1.522663 -0.959363 0
M  V30 13 C -1.008706 2.844544 -0.548383 0
M  V30 14 C -2.390245 2.909398 -0.057799 0
M  V30 15 C -2.780680 2.133022 1.132310 0
M  V30 16 C -2.066597 2.434537 2.405078 0
M  V30 17 C -3.102042 2.339393 3.526656 0
M  V30 18 C -4.309409 1.762817 2.817913 0
M  V30 19 C -4.222142 2.529144 1.494785 0
M  V30 20 N -1.430978 0.550368 -0.813345 0
M  V30 21 C -1.163142 -0.725575 -1.138907 0
M  V30 22 C -2.105190 -1.738675 -1.017831 0
M  V30 23 C -1.765078 -3.032329 -1.401188 0
M  V30 24 C -0.506959 -3.314922 -1.898128 0
M  V30 25 C 0.362291 -2.252638 -1.983114 0
M  V30 26 C 0.097928 -0.970978 -1.626933 0
M  V30 27 N 4.839104 -3.454791 2.094926 0
M  V30 28 O 4.832408 -4.448540 2.920206 0
M  V30 29 H 4.139000 -6.915890 3.984370 0
M  V30 30 H 2.467146 -6.295703 3.883944 0
M  V30 31 H 3.159624 -7.340439 2.535493 0
M  V30 32 H 2.299509 -5.162872 1.059677 0
M  V30 33 H 2.612073 -2.973860 -0.508349 0
M  V30 34 H 4.973618 -0.425399 -1.711847 0
M  V30 35 H 3.942569 0.562668 -0.601996 0
M  V30 36 H -0.304698 3.245156 0.220740 0
M  V30 37 H -0.914390 3.511720 -1.428135 0
M  V30 38 H -3.112449 2.635862 -0.880905 0
M  V30 39 H -2.624325 3.979007 0.155382 0
M  V30 40 H -2.852490 1.033236 1.006212 0
M  V30 41 H -1.567787 3.414313 2.425428 0
M  V30 42 H -1.332555 1.614521 2.592030 0
M  V30 43 H -2.735123 1.701165 4.350516 0
M  V30 44 H -3.390338 3.356144 3.865514 0
M  V30 45 H -5.264020 1.934260 3.335087 0
M  V30 46 H -4.063314 0.710287 2.603062 0
M  V30 47 H -4.234744 3.614281 1.743044 0
M  V30 48 H -4.948226 2.208447 0.753513 0
M  V30 49 H -3.088289 -1.517242 -0.629013 0
M  V30 50 H -2.549916 -3.789843 -1.283452 0
M  V30 51 H -0.279669 -4.330479 -2.186484 0
M  V30 52 H 1.349340 -2.484245 -2.396088 0
M  V30 END ATOM
M  V30 BEGIN BOND
M  V30 1 1 1 2
M  V30 2 2 2 3
M  V30 3 1 3 4
M  V30 4 1 4 5
M  V30 5 1 5 6
M  V30 6 2 6 7
M  V30 7 1 6 8
M  V30 8 1 8 9
M  V30 9 1 9 10
M  V30 10 2 10 11
M  V30 11 1 11 12
M  V30 12 1 12 13
M  V30 13 1 13 14
M  V30 14 1 14 15
M  V30 15 1 15 16
M  V30 16 1 16 17
M  V30 17 1 17 18
M  V30 18 1 18 19
M  V30 19 2 12 20
M  V30 20 1 20 21
M  V30 21 2 21 22
M  V30 22 1 22 23
M  V30 23 2 23 24
M  V30 24 1 24 25
M  V30 25 2 25 26
M  V30 26 2 4 27
M  V30 27 1 27 28
M  V30 28 1 28 2
M  V30 29 1 26 10
M  V30 30 1 19 15
M  V30 31 1 26 21
M  V30 32 1 1 29
M  V30 33 1 1 30
M  V30 34 1 1 31
M  V30 35 1 3 32
M  V30 36 1 5 33
M  V30 37 1 8 34
M  V30 38 1 8 35
M  V30 39 1 13 36
M  V30 40 1 13 37
M  V30 41 1 14 38
M  V30 42 1 14 39
M  V30 43 1 15 40
M  V30 44 1 16 41
M  V30 45 1 16 42
M  V30 46 1 17 43
M  V30 47 1 17 44
M  V30 48 1 18 45
M  V30 49 1 18 46
M  V30 50 1 19 47
M  V30 51 1 19 48
M  V30 52 1 22 49
M  V30 53 1 23 50
M  V30 54 1 24 51
M  V30 55 1 25 52
M  V30 END BOND
M  V30 END CTAB
M  END
>  <Dataset>  (636) 
ChEMBL_Kinases

>  <Ligand_Instance>  (636) 
nan

>  <PDB_ID>  (636) 
nan

>  <Standardized_SMILES>  (636) 
Cc1cc(NC(=O)CSc2nc(CCC3CCCC3)nc3ccccc23)no1

>  <Name>  (636) 
nan

>  <Pocket>  (636) 
nan

>  <ATP_Site>  (636) 
nan

>  <Peripheral>  (636) 
nan

>  <Num_H_Atoms_ProtBoundConf>  (636) 
nan

>  <Num_Resolved_Atoms>  (636) 
nan

>  <Num_Not_Resolved_Atoms>  (636) 
nan

$$$$
CHEMBL1419120
     RDKit          3D

  0  0  0  0  0  0  0  0  0  0999 V3000
M  V30 BEGIN CTAB
M  V30 COUNTS 59 62 0 0 0
M  V30 BEGIN ATOM
M  V30 1 C 3.467758 -1.694717 6.950066 0
M  V30 2 C 3.239297 -2.976249 6.207428 0
M  V30 3 O 2.495460 -2.747149 5.062382 0
M  V30 4 C 2.896952 -1.931767 4.037139 0
M  V30 5 C 4.090022 -1.225559 3.983083 0
M  V30 6 C 4.480969 -0.411031 2.949169 0
M  V30 7 C 3.604975 -0.277126 1.854443 0
M  V30 8 C 2.377636 -0.949849 1.819343 0
M  V30 9 C 1.569719 -0.741399 0.647038 0
M  V30 10 O 2.200511 0.035282 -0.150447 0
M  V30 11 C 0.319594 -1.075996 0.040469 0
M  V30 12 C -0.633353 -1.849147 0.531909 0
M  V30 13 O -0.895373 -2.609181 1.670025 0
M  V30 14 C -1.776396 -1.932943 -0.406709 0
M  V30 15 O -2.893709 -2.530262 -0.394998 0
M  V30 16 N -1.350806 -1.095241 -1.506827 0
M  V30 17 C -2.176070 -0.825627 -2.632277 0
M  V30 18 C -3.043878 0.391103 -2.590727 0
M  V30 19 N -4.004825 0.475419 -1.532637 0
M  V30 20 C -4.921931 1.613122 -1.763547 0
M  V30 21 C -5.897585 1.607145 -0.610134 0
M  V30 22 O -5.228894 2.192161 0.464790 0
M  V30 23 C -3.857402 2.097310 0.349445 0
M  V30 24 C -3.386426 0.769636 -0.243187 0
M  V30 25 C -0.030247 -0.571016 -1.337173 0
M  V30 26 C 0.986925 -1.196602 -2.253542 0
M  V30 27 C 1.784315 -2.251467 -1.855120 0
M  V30 28 C 2.741458 -2.859743 -2.641945 0
M  V30 29 C 2.924511 -2.380864 -3.941295 0
M  V30 30 N 2.154803 -1.347417 -4.353597 0
M  V30 31 C 1.231773 -0.782858 -3.551397 0
M  V30 32 C 2.153197 -1.708312 2.919376 0
M  V30 33 H 3.104230 -0.788527 6.416934 0
M  V30 34 H 2.899128 -1.718485 7.923547 0
M  V30 35 H 4.526443 -1.514472 7.208835 0
M  V30 36 H 4.239837 -3.401176 5.954616 0
M  V30 37 H 2.685460 -3.719250 6.852657 0
M  V30 38 H 4.788217 -1.314839 4.824487 0
M  V30 39 H 5.425486 0.096368 2.996825 0
M  V30 40 H 4.043606 0.394757 1.108051 0
M  V30 41 H -0.482640 -3.505437 1.800148 0
M  V30 42 H -1.515451 -0.684124 -3.539855 0
M  V30 43 H -2.869610 -1.708760 -2.849109 0
M  V30 44 H -3.502109 0.532917 -3.597034 0
M  V30 45 H -2.337502 1.276058 -2.511461 0
M  V30 46 H -4.389183 2.578735 -1.754304 0
M  V30 47 H -5.440392 1.502765 -2.731937 0
M  V30 48 H -6.830011 2.174380 -0.819109 0
M  V30 49 H -6.128726 0.525483 -0.357627 0
M  V30 50 H -3.351273 2.973206 -0.078098 0
M  V30 51 H -3.483142 2.058648 1.421813 0
M  V30 52 H -3.654667 0.013453 0.519853 0
M  V30 53 H -2.304055 0.868109 -0.349125 0
M  V30 54 H 0.018795 0.536314 -1.390420 0
M  V30 55 H 1.687118 -2.670671 -0.858552 0
M  V30 56 H 3.348495 -3.686395 -2.293775 0
M  V30 57 H 3.662387 -2.832238 -4.590155 0
M  V30 58 H 0.678654 0.043485 -3.968883 0
M  V30 59 H 1.226795 -2.254895 2.950679 0
M  V30 END ATOM
M  V30 BEGIN BOND
M  V30 1 1 1 2
M  V30 2 1 2 3
M  V30 3 1 3 4
M  V30 4 2 4 5
M  V30 5 1 5 6
M  V30 6 2 6 7
M  V30 7 1 7 8
M  V30 8 1 8 9
M  V30 9 2 9 10
M  V30 10 1 9 11
M  V30 11 2 11 12
M  V30 12 1 12 13
M  V30 13 1 12 14
M  V30 14 2 14 15
M  V30 15 1 14 16
M  V30 16 1 16 17
M  V30 17 1 17 18
M  V30 18 1 18 19
M  V30 19 1 19 20
M  V30 20 1 20 21
M  V30 21 1 21 22
M  V30 22 1 22 23
M  V30 23 1 23 24
M  V30 24 1 16 25
M  V30 25 1 25 26
M  V30 26 2 26 27
M  V30 27 1 27 28
M  V30 28 2 28 29
M  V30 29 1 29 30
M  V30 30 2 30 31
M  V30 31 2 8 32
M  V30 32 1 32 4
M  V30 33 1 25 11
M  V30 34 1 31 26
M  V30 35 1 24 19
M  V30 36 1 1 33
M  V30 37 1 1 34
M  V30 38 1 1 35
M  V30 39 1 2 36
M  V30 40 1 2 37
M  V30 41 1 5 38
M  V30 42 1 6 39
M  V30 43 1 7 40
M  V30 44 1 13 41
M  V30 45 1 17 42
M  V30 46 1 17 43
M  V30 47 1 18 44
M  V30 48 1 18 45
M  V30 49 1 20 46
M  V30 50 1 20 47
M  V30 51 1 21 48
M  V30 52 1 21 49
M  V30 53 1 23 50
M  V30 54 1 23 51
M  V30 55 1 24 52
M  V30 56 1 24 53
M  V30 57 1 25 54
M  V30 58 1 27 55
M  V30 59 1 28 56
M  V30 60 1 29 57
M  V30 61 1 31 58
M  V30 62 1 32 59
M  V30 END BOND
M  V30 END CTAB
M  END
>  <Dataset>  (637) 
ChEMBL_Kinases

>  <Ligand_Instance>  (637) 
nan

>  <PDB_ID>  (637) 
nan

>  <Standardized_SMILES>  (637) 
CCOc1cccc(C(=O)C2=C(O)C(=O)N(CCN3CCOCC3)C2c2cccnc2)c1

>  <Name>  (637) 
nan

>  <Pocket>  (637) 
nan

>  <ATP_Site>  (637) 
nan

>  <Peripheral>  (637) 
nan

>  <Num_H_Atoms_ProtBoundConf>  (637) 
nan

>  <Num_Resolved_Atoms>  (637) 
nan

>  <Num_Not_Resolved_Atoms>  (637) 
nan

$$$$
CHEMBL1424114
     RDKit          3D

  0  0  0  0  0  0  0  0  0  0999 V3000
M  V30 BEGIN CTAB
M  V30 COUNTS 32 33 0 0 0
M  V30 BEGIN ATOM
M  V30 1 C 0.819324 -5.509238 0.680732 0
M  V30 2 O 1.459475 -4.263268 0.477018 0
M  V30 3 C 1.008665 -3.083675 1.029098 0
M  V30 4 O 0.033172 -3.606816 1.614046 0
M  V30 5 C 1.615701 -1.776870 0.858428 0
M  V30 6 C 2.734805 -1.777790 0.070541 0
M  V30 7 C 3.437620 -0.619511 -0.194780 0
M  V30 8 C 2.899420 0.521067 0.408299 0
M  V30 9 C 1.767355 0.561301 1.212094 0
M  V30 10 C 1.148321 -0.636773 1.411758 0
M  V30 11 N -0.015782 -0.659172 2.236341 0
M  V30 12 S -1.041291 0.692133 2.569023 0
M  V30 13 O -0.200774 1.814059 3.158273 0
M  V30 14 O -2.073432 0.337087 3.584272 0
M  V30 15 C -1.758974 1.270737 1.062583 0
M  V30 16 C -1.207977 2.259319 0.253761 0
M  V30 17 C -1.918180 2.544078 -0.870052 0
M  V30 18 C -3.096298 1.962375 -1.269775 0
M  V30 19 Cl -3.943310 2.389626 -2.747357 0
M  V30 20 N -3.626422 0.992771 -0.463239 0
M  V30 21 C -2.944811 0.673047 0.679833 0
M  V30 22 H 1.225522 -6.311517 0.070317 0
M  V30 23 H 0.759653 -5.829603 1.722338 0
M  V30 24 H -0.230788 -5.341698 0.294790 0
M  V30 25 H 3.148465 -2.671855 -0.396376 0
M  V30 26 H 4.313059 -0.574161 -0.802360 0
M  V30 27 H 3.447127 1.437094 0.206048 0
M  V30 28 H 1.498822 1.513196 1.592144 0
M  V30 29 H -0.271835 -1.562989 2.677220 0
M  V30 30 H -0.290882 2.708182 0.580868 0
M  V30 31 H -1.499391 3.321155 -1.514882 0
M  V30 32 H -3.498474 -0.116589 1.216369 0
M  V30 END ATOM
M  V30 BEGIN BOND
M  V30 1 1 1 2
M  V30 2 1 2 3
M  V30 3 2 3 4
M  V30 4 1 3 5
M  V30 5 2 5 6
M  V30 6 1 6 7
M  V30 7 2 7 8
M  V30 8 1 8 9
M  V30 9 2 9 10
M  V30 10 1 10 11
M  V30 11 1 11 12
M  V30 12 2 12 13
M  V30 13 2 12 14
M  V30 14 1 12 15
M  V30 15 2 15 16
M  V30 16 1 16 17
M  V30 17 2 17 18
M  V30 18 1 18 19
M  V30 19 1 18 20
M  V30 20 2 20 21
M  V30 21 1 10 5
M  V30 22 1 21 15
M  V30 23 1 1 22
M  V30 24 1 1 23
M  V30 25 1 1 24
M  V30 26 1 6 25
M  V30 27 1 7 26
M  V30 28 1 8 27
M  V30 29 1 9 28
M  V30 30 1 11 29
M  V30 31 1 16 30
M  V30 32 1 17 31
M  V30 33 1 21 32
M  V30 END BOND
M  V30 END CTAB
M  END
>  <Dataset>  (638) 
ChEMBL_Kinases

>  <Ligand_Instance>  (638) 
nan

>  <PDB_ID>  (638) 
nan

>  <Standardized_SMILES>  (638) 
COC(=O)c1ccccc1NS(=O)(=O)c1ccc(Cl)nc1

>  <Name>  (638) 
nan

>  <Pocket>  (638) 
nan

>  <ATP_Site>  (638) 
nan

>  <Peripheral>  (638) 
nan

>  <Num_H_Atoms_ProtBoundConf>  (638) 
nan

>  <Num_Resolved_Atoms>  (638) 
nan

>  <Num_Not_Resolved_Atoms>  (638) 
nan

$$$$
CHEMBL1423975
     RDKit          3D

  0  0  0  0  0  0  0  0  0  0999 V3000
M  V30 BEGIN CTAB
M  V30 COUNTS 23 24 0 0 0
M  V30 BEGIN ATOM
M  V30 1 C -1.244900 -3.197682 2.150594 0
M  V30 2 C 0.083340 -2.591459 2.560409 0
M  V30 3 O 0.243514 -1.426730 1.755158 0
M  V30 4 C 1.334013 -0.583076 1.820814 0
M  V30 5 O 2.241362 -0.887273 2.663158 0
M  V30 6 C 1.364163 0.577138 0.932567 0
M  V30 7 C 2.444834 1.461237 0.960018 0
M  V30 8 N 2.441479 2.519362 0.129422 0
M  V30 9 C 1.451251 2.786311 -0.738914 0
M  V30 10 N 1.150987 3.713673 -1.664831 0
M  V30 11 C -0.039231 3.436315 -2.240207 0
M  V30 12 N -0.504483 2.293524 -1.655361 0
M  V30 13 N 0.402615 1.919383 -0.758473 0
M  V30 14 C 0.338342 0.839923 0.043793 0
M  V30 15 O -0.725771 -0.035174 0.020327 0
M  V30 16 H -1.433717 -2.974072 1.088788 0
M  V30 17 H -2.021249 -2.653175 2.730537 0
M  V30 18 H -1.299264 -4.290235 2.357179 0
M  V30 19 H 0.905203 -3.310783 2.372381 0
M  V30 20 H 0.031258 -2.382167 3.634130 0
M  V30 21 H 3.251043 1.270370 1.646234 0
M  V30 22 H -0.538457 3.997192 -3.011684 0
M  V30 23 H -1.361686 -0.005759 0.813074 0
M  V30 END ATOM
M  V30 BEGIN BOND
M  V30 1 1 1 2
M  V30 2 1 2 3
M  V30 3 1 3 4
M  V30 4 2 4 5
M  V30 5 1 4 6
M  V30 6 1 6 7
M  V30 7 2 7 8
M  V30 8 1 8 9
M  V30 9 2 9 10
M  V30 10 1 10 11
M  V30 11 2 11 12
M  V30 12 1 12 13
M  V30 13 1 13 14
M  V30 14 1 14 15
M  V30 15 2 14 6
M  V30 16 1 13 9
M  V30 17 1 1 16
M  V30 18 1 1 17
M  V30 19 1 1 18
M  V30 20 1 2 19
M  V30 21 1 2 20
M  V30 22 1 7 21
M  V30 23 1 11 22
M  V30 24 1 15 23
M  V30 END BOND
M  V30 END CTAB
M  END
>  <Dataset>  (639) 
ChEMBL_Kinases

>  <Ligand_Instance>  (639) 
nan

>  <PDB_ID>  (639) 
nan

>  <Standardized_SMILES>  (639) 
CCOC(=O)c1cnc2ncnn2c1O

>  <Name>  (639) 
nan

>  <Pocket>  (639) 
nan

>  <ATP_Site>  (639) 
nan

>  <Peripheral>  (639) 
nan

>  <Num_H_Atoms_ProtBoundConf>  (639) 
nan

>  <Num_Resolved_Atoms>  (639) 
nan

>  <Num_Not_Resolved_Atoms>  (639) 
nan

$$$$
CHEMBL1423529
     RDKit          3D

  0  0  0  0  0  0  0  0  0  0999 V3000
M  V30 BEGIN CTAB
M  V30 COUNTS 39 41 0 0 0
M  V30 BEGIN ATOM
M  V30 1 C -1.822714 -5.836697 3.333772 0
M  V30 2 O -1.634814 -4.441916 3.518275 0
M  V30 3 C -0.450244 -3.874463 3.068413 0
M  V30 4 C 0.587375 -4.539664 2.446443 0
M  V30 5 C 1.711672 -3.840043 2.050971 0
M  V30 6 C 1.858312 -2.461745 2.251689 0
M  V30 7 C 3.125899 -1.906144 1.764526 0
M  V30 8 N 3.075241 -1.478726 0.365601 0
M  V30 9 C 2.203540 -0.478967 -0.084615 0
M  V30 10 N 1.901864 0.476645 0.727663 0
M  V30 11 N 1.044725 1.522125 0.384260 0
M  V30 12 C 0.477808 1.624155 -0.778824 0
M  V30 13 C -0.360812 2.814209 -0.849340 0
M  V30 14 C -1.085277 3.158256 -1.996441 0
M  V30 15 C -1.897191 4.257528 -2.148786 0
M  V30 16 C -2.005118 5.100031 -1.063235 0
M  V30 17 C -1.340318 4.867702 0.121785 0
M  V30 18 C -0.554493 3.739253 0.166774 0
M  V30 19 C 0.510622 0.802107 -2.007145 0
M  V30 20 S 1.590084 -0.635992 -1.771816 0
M  V30 21 C 0.803429 -1.831816 2.875055 0
M  V30 22 C -0.319298 -2.519484 3.272080 0
M  V30 23 H -1.682402 -6.137844 2.264045 0
M  V30 24 H -2.852071 -6.146846 3.590554 0
M  V30 25 H -1.049477 -6.390257 3.910162 0
M  V30 26 H 0.464106 -5.594987 2.298001 0
M  V30 27 H 2.454205 -4.457457 1.578215 0
M  V30 28 H 3.949886 -2.642725 1.839036 0
M  V30 29 H 3.348516 -0.985855 2.349858 0
M  V30 30 H 3.699171 -1.916397 -0.353298 0
M  V30 31 H -1.003021 2.491389 -2.863084 0
M  V30 32 H -2.409124 4.424090 -3.080862 0
M  V30 33 H -2.631379 5.979255 -1.130962 0
M  V30 34 H -1.401153 5.500887 0.985036 0
M  V30 35 H -0.015540 3.537803 1.106794 0
M  V30 36 H -0.460407 0.410114 -2.309124 0
M  V30 37 H 0.872160 1.438457 -2.850133 0
M  V30 38 H 0.941829 -0.777277 3.018926 0
M  V30 39 H -1.058627 -1.889505 3.745842 0
M  V30 END ATOM
M  V30 BEGIN BOND
M  V30 1 1 1 2
M  V30 2 1 2 3
M  V30 3 2 3 4
M  V30 4 1 4 5
M  V30 5 2 5 6
M  V30 6 1 6 7
M  V30 7 1 7 8
M  V30 8 1 8 9
M  V30 9 2 9 10
M  V30 10 1 10 11
M  V30 11 2 11 12
M  V30 12 1 12 13
M  V30 13 2 13 14
M  V30 14 1 14 15
M  V30 15 2 15 16
M  V30 16 1 16 17
M  V30 17 2 17 18
M  V30 18 1 12 19
M  V30 19 1 19 20
M  V30 20 1 6 21
M  V30 21 2 21 22
M  V30 22 1 22 3
M  V30 23 1 20 9
M  V30 24 1 18 13
M  V30 25 1 1 23
M  V30 26 1 1 24
M  V30 27 1 1 25
M  V30 28 1 4 26
M  V30 29 1 5 27
M  V30 30 1 7 28
M  V30 31 1 7 29
M  V30 32 1 8 30
M  V30 33 1 14 31
M  V30 34 1 15 32
M  V30 35 1 16 33
M  V30 36 1 17 34
M  V30 37 1 18 35
M  V30 38 1 19 36
M  V30 39 1 19 37
M  V30 40 1 21 38
M  V30 41 1 22 39
M  V30 END BOND
M  V30 END CTAB
M  END
>  <Dataset>  (640) 
ChEMBL_Kinases

>  <Ligand_Instance>  (640) 
nan

>  <PDB_ID>  (640) 
nan

>  <Standardized_SMILES>  (640) 
COc1ccc(CNC2=NN=C(c3ccccc3)CS2)cc1

>  <Name>  (640) 
nan

>  <Pocket>  (640) 
nan

>  <ATP_Site>  (640) 
nan

>  <Peripheral>  (640) 
nan

>  <Num_H_Atoms_ProtBoundConf>  (640) 
nan

>  <Num_Resolved_Atoms>  (640) 
nan

>  <Num_Not_Resolved_Atoms>  (640) 
nan

$$$$
CHEMBL1423492
     RDKit          3D

  0  0  0  0  0  0  0  0  0  0999 V3000
M  V30 BEGIN CTAB
M  V30 COUNTS 53 58 0 0 0
M  V30 BEGIN ATOM
M  V30 1 C -4.483392 -3.156511 -3.295512 0
M  V30 2 C -3.241174 -2.783641 -2.567549 0
M  V30 3 C -2.446367 -3.793656 -2.069157 0
M  V30 4 C -1.279400 -3.462681 -1.384816 0
M  V30 5 Cl -0.340456 -4.802003 -0.791339 0
M  V30 6 C -0.951769 -2.140158 -1.225354 0
M  V30 7 C -1.704425 -1.084135 -1.700827 0
M  V30 8 C -2.849980 -1.480272 -2.369484 0
M  V30 9 N -3.583264 -0.316532 -2.803563 0
M  V30 10 C -2.815401 0.782793 -2.356488 0
M  V30 11 O -3.179254 1.985760 -2.537211 0
M  V30 12 C -1.540394 0.357119 -1.654701 0 CFG=2
M  V30 13 C -0.441624 0.774703 -2.599916 0 CFG=2
M  V30 14 C 0.768221 -0.051493 -2.540534 0
M  V30 15 O 0.951877 -1.200531 -3.067313 0
M  V30 16 N 1.832008 0.529992 -1.805143 0
M  V30 17 C 3.090173 0.083248 -1.259263 0
M  V30 18 C 2.895733 -0.405810 0.124652 0
M  V30 19 C 2.598530 -1.704602 0.477518 0
M  V30 20 C 2.424718 -2.128440 1.774590 0
M  V30 21 C 2.545857 -1.238291 2.803481 0
M  V30 22 C 2.841289 0.073665 2.522058 0
M  V30 23 C 3.008191 0.460002 1.209024 0
M  V30 24 C 1.441022 1.904640 -1.627763 0
M  V30 25 O 2.126023 2.882258 -1.225956 0
M  V30 26 C 0.036124 2.074256 -1.994285 0 CFG=2
M  V30 27 C -0.884406 2.350707 -0.836981 0 CFG=2
M  V30 28 C -0.177902 2.694307 0.453148 0
M  V30 29 C -1.221213 2.150522 1.443413 0
M  V30 30 C -1.748284 0.884839 0.755769 0
M  V30 31 N -1.393069 1.067394 -0.549346 0
M  V30 32 H -4.963438 -4.029265 -2.817258 0
M  V30 33 H -4.132652 -3.429624 -4.332139 0
M  V30 34 H -5.157894 -2.293150 -3.427515 0
M  V30 35 H -2.747549 -4.816645 -2.221239 0
M  V30 36 H -0.032828 -2.027836 -0.674361 0
M  V30 37 H -4.470071 -0.268821 -3.324128 0
M  V30 38 H -0.811084 0.918319 -3.640362 0
M  V30 39 H 3.441109 -0.774736 -1.871366 0
M  V30 40 H 3.867263 0.872852 -1.306674 0
M  V30 41 H 2.501526 -2.416505 -0.342763 0
M  V30 42 H 2.194127 -3.179250 1.909843 0
M  V30 43 H 2.395948 -1.642299 3.796086 0
M  V30 44 H 2.926948 0.736479 3.357531 0
M  V30 45 H 3.242118 1.507352 1.012626 0
M  V30 46 H -0.101019 2.872492 -2.778306 0
M  V30 47 H -1.704523 3.043039 -1.070193 0
M  V30 48 H 0.750349 2.129145 0.500953 0
M  V30 49 H -0.090999 3.785299 0.565305 0
M  V30 50 H -0.780284 1.957792 2.427659 0
M  V30 51 H -2.057509 2.870112 1.459123 0
M  V30 52 H -2.860723 0.819286 0.859549 0
M  V30 53 H -1.344033 0.053971 1.346887 0
M  V30 END ATOM
M  V30 BEGIN BOND
M  V30 1 1 1 2
M  V30 2 2 2 3
M  V30 3 1 3 4
M  V30 4 1 4 5
M  V30 5 2 4 6
M  V30 6 1 6 7
M  V30 7 2 7 8
M  V30 8 1 8 9
M  V30 9 1 9 10
M  V30 10 2 10 11
M  V30 11 1 10 12
M  V30 12 1 12 13
M  V30 13 1 13 14
M  V30 14 2 14 15
M  V30 15 1 14 16
M  V30 16 1 16 17
M  V30 17 1 17 18
M  V30 18 2 18 19
M  V30 19 1 19 20
M  V30 20 2 20 21
M  V30 21 1 21 22
M  V30 22 2 22 23
M  V30 23 1 16 24
M  V30 24 2 24 25
M  V30 25 1 24 26
M  V30 26 1 26 27
M  V30 27 1 27 28
M  V30 28 1 28 29
M  V30 29 1 29 30
M  V30 30 1 30 31
M  V30 31 1 8 2
M  V30 32 1 12 31 CFG=1
M  V30 33 1 12 7
M  V30 34 1 26 13
M  V30 35 1 31 27
M  V30 36 1 23 18
M  V30 37 1 1 32
M  V30 38 1 1 33
M  V30 39 1 1 34
M  V30 40 1 3 35
M  V30 41 1 6 36
M  V30 42 1 9 37
M  V30 43 1 13 38 CFG=3
M  V30 44 1 17 39
M  V30 45 1 17 40
M  V30 46 1 19 41
M  V30 47 1 20 42
M  V30 48 1 21 43
M  V30 49 1 22 44
M  V30 50 1 23 45
M  V30 51 1 26 46 CFG=3
M  V30 52 1 27 47 CFG=3
M  V30 53 1 28 48
M  V30 54 1 28 49
M  V30 55 1 29 50
M  V30 56 1 29 51
M  V30 57 1 30 52
M  V30 58 1 30 53
M  V30 END BOND
M  V30 END CTAB
M  END
>  <Dataset>  (641) 
ChEMBL_Kinases

>  <Ligand_Instance>  (641) 
nan

>  <PDB_ID>  (641) 
nan

>  <Standardized_SMILES>  (641) 
Cc1cc(Cl)cc2c1NC(=O)[C@]21[C@@H]2C(=O)N(Cc3ccccc3)C(=O)[C@@H]2[C@@H]2CCCN21

>  <Name>  (641) 
nan

>  <Pocket>  (641) 
nan

>  <ATP_Site>  (641) 
nan

>  <Peripheral>  (641) 
nan

>  <Num_H_Atoms_ProtBoundConf>  (641) 
nan

>  <Num_Resolved_Atoms>  (641) 
nan

>  <Num_Not_Resolved_Atoms>  (641) 
nan

$$$$
CHEMBL1423234
     RDKit          3D

  0  0  0  0  0  0  0  0  0  0999 V3000
M  V30 BEGIN CTAB
M  V30 COUNTS 45 49 0 0 0
M  V30 BEGIN ATOM
M  V30 1 O 0.017412 -1.229997 2.965935 0
M  V30 2 C 0.118613 -1.333296 1.713027 0
M  V30 3 C 1.337662 -0.583526 1.436808 0
M  V30 4 C 2.670002 -0.946880 1.372769 0
M  V30 5 N 3.417100 0.141459 1.077091 0
M  V30 6 N 2.644902 1.206725 0.942377 0
M  V30 7 C 2.869183 2.503823 0.658514 0
M  V30 8 C 4.239424 2.983853 0.421029 0
M  V30 9 F 4.549442 3.961276 1.331551 0
M  V30 10 F 4.374665 3.455897 -0.882333 0
M  V30 11 C 1.814452 3.394764 0.587903 0
M  V30 12 C 0.514389 2.986834 0.803681 0
M  V30 13 C -0.655092 3.924118 0.735556 0
M  V30 14 C -0.630488 5.161225 -0.035488 0
M  V30 15 C -0.483751 5.238416 1.469925 0
M  V30 16 N 0.337996 1.676837 1.085212 0
M  V30 17 C 1.362854 0.789300 1.158211 0
M  V30 18 N -0.724480 -2.002545 0.784314 0
M  V30 19 C -0.674796 -2.166943 -0.675459 0
M  V30 20 C -0.685422 -3.625457 -1.056748 0
M  V30 21 C -0.993463 -4.520233 0.089985 0
M  V30 22 C -0.683865 -5.865554 -0.057511 0
M  V30 23 C -0.923188 -6.797911 0.939623 0
M  V30 24 C -1.487022 -6.366891 2.112285 0
M  V30 25 C -1.809770 -5.037332 2.298683 0
M  V30 26 C -1.559482 -4.132163 1.287170 0
M  V30 27 C -1.870624 -2.661908 1.382453 0
M  V30 28 H 2.967859 -1.975825 1.548985 0
M  V30 29 H 4.931210 2.121217 0.523420 0
M  V30 30 H 1.928057 4.454837 0.363075 0
M  V30 31 H -1.640716 3.433540 0.935301 0
M  V30 32 H -1.587676 5.531734 -0.450433 0
M  V30 33 H 0.261203 5.418191 -0.641163 0
M  V30 34 H -1.311142 5.620516 2.072233 0
M  V30 35 H 0.535817 5.450440 1.842066 0
M  V30 36 H -1.581009 -1.624161 -1.067948 0
M  V30 37 H 0.184731 -1.689011 -1.139621 0
M  V30 38 H 0.294468 -3.946863 -1.496728 0
M  V30 39 H -1.452804 -3.732137 -1.868165 0
M  V30 40 H -0.230507 -6.312488 -0.955467 0
M  V30 41 H -0.690415 -7.850934 0.847315 0
M  V30 42 H -1.723383 -6.982443 2.960406 0
M  V30 43 H -2.257734 -4.574555 3.176499 0
M  V30 44 H -2.777137 -2.526774 0.729443 0
M  V30 45 H -2.108641 -2.342180 2.394365 0
M  V30 END ATOM
M  V30 BEGIN BOND
M  V30 1 2 1 2
M  V30 2 1 2 3
M  V30 3 1 3 4
M  V30 4 2 4 5
M  V30 5 1 5 6
M  V30 6 1 6 7
M  V30 7 1 7 8
M  V30 8 1 8 9
M  V30 9 1 8 10
M  V30 10 2 7 11
M  V30 11 1 11 12
M  V30 12 1 12 13
M  V30 13 1 13 14
M  V30 14 1 14 15
M  V30 15 2 12 16
M  V30 16 1 16 17
M  V30 17 1 2 18
M  V30 18 1 18 19
M  V30 19 1 19 20
M  V30 20 1 20 21
M  V30 21 2 21 22
M  V30 22 1 22 23
M  V30 23 2 23 24
M  V30 24 1 24 25
M  V30 25 2 25 26
M  V30 26 1 26 27
M  V30 27 2 17 3
M  V30 28 1 27 18
M  V30 29 1 17 6
M  V30 30 1 26 21
M  V30 31 1 15 13
M  V30 32 1 4 28
M  V30 33 1 8 29
M  V30 34 1 11 30
M  V30 35 1 13 31
M  V30 36 1 14 32
M  V30 37 1 14 33
M  V30 38 1 15 34
M  V30 39 1 15 35
M  V30 40 1 19 36
M  V30 41 1 19 37
M  V30 42 1 20 38
M  V30 43 1 20 39
M  V30 44 1 22 40
M  V30 45 1 23 41
M  V30 46 1 24 42
M  V30 47 1 25 43
M  V30 48 1 27 44
M  V30 49 1 27 45
M  V30 END BOND
M  V30 END CTAB
M  END
>  <Dataset>  (642) 
ChEMBL_Kinases

>  <Ligand_Instance>  (642) 
nan

>  <PDB_ID>  (642) 
nan

>  <Standardized_SMILES>  (642) 
O=C(c1cnn2c(C(F)F)cc(C3CC3)nc12)N1CCc2ccccc2C1

>  <Name>  (642) 
nan

>  <Pocket>  (642) 
nan

>  <ATP_Site>  (642) 
nan

>  <Peripheral>  (642) 
nan

>  <Num_H_Atoms_ProtBoundConf>  (642) 
nan

>  <Num_Resolved_Atoms>  (642) 
nan

>  <Num_Not_Resolved_Atoms>  (642) 
nan

$$$$
CHEMBL1423096
     RDKit          3D

  0  0  0  0  0  0  0  0  0  0999 V3000
M  V30 BEGIN CTAB
M  V30 COUNTS 27 30 0 0 0
M  V30 BEGIN ATOM
M  V30 1 Cl -0.735777 -5.761190 1.818785 0
M  V30 2 C 0.147362 -4.373203 1.216304 0
M  V30 3 C 1.399305 -4.498546 0.651139 0
M  V30 4 C 2.045563 -3.368528 0.194472 0
M  V30 5 C 1.386044 -2.151243 0.333275 0
M  V30 6 N 1.882178 -0.958383 -0.062232 0
M  V30 7 C 0.954591 -0.040153 0.242559 0
M  V30 8 C -0.146356 -0.618720 0.834690 0
M  V30 9 C 0.135660 -1.986393 0.892263 0
M  V30 10 C -0.469911 -3.144809 1.333917 0
M  V30 11 C -1.414910 -0.048477 1.347278 0
M  V30 12 C -1.496983 1.428184 1.176678 0
M  V30 13 C -0.290158 2.012814 0.536349 0
M  V30 14 C -0.133068 3.353469 0.278723 0
M  V30 15 N 1.066248 3.543305 -0.304252 0
M  V30 16 N 1.666282 2.351505 -0.418651 0
M  V30 17 C 0.861070 1.402910 0.085913 0
M  V30 18 H 1.842830 -5.473350 0.579335 0
M  V30 19 H 3.011741 -3.471013 -0.240907 0
M  V30 20 H 2.764052 -0.680328 -0.510923 0
M  V30 21 H -1.451122 -3.043938 1.776489 0
M  V30 22 H -1.575851 -0.324924 2.411203 0
M  V30 23 H -2.283366 -0.517954 0.797646 0
M  V30 24 H -2.336013 1.671268 0.480459 0
M  V30 25 H -1.671910 1.898103 2.181744 0
M  V30 26 H -0.794117 4.212219 0.467325 0
M  V30 27 H 1.482275 4.443013 -0.621348 0
M  V30 END ATOM
M  V30 BEGIN BOND
M  V30 1 1 1 2
M  V30 2 2 2 3
M  V30 3 1 3 4
M  V30 4 2 4 5
M  V30 5 1 5 6
M  V30 6 1 6 7
M  V30 7 2 7 8
M  V30 8 1 8 9
M  V30 9 2 9 10
M  V30 10 1 8 11
M  V30 11 1 11 12
M  V30 12 1 12 13
M  V30 13 2 13 14
M  V30 14 1 14 15
M  V30 15 1 15 16
M  V30 16 2 16 17
M  V30 17 1 10 2
M  V30 18 1 17 13
M  V30 19 1 9 5
M  V30 20 1 17 7
M  V30 21 1 3 18
M  V30 22 1 4 19
M  V30 23 1 6 20
M  V30 24 1 10 21
M  V30 25 1 11 22
M  V30 26 1 11 23
M  V30 27 1 12 24
M  V30 28 1 12 25
M  V30 29 1 14 26
M  V30 30 1 15 27
M  V30 END BOND
M  V30 END CTAB
M  END
>  <Dataset>  (643) 
ChEMBL_Kinases

>  <Ligand_Instance>  (643) 
nan

>  <PDB_ID>  (643) 
nan

>  <Standardized_SMILES>  (643) 
Clc1ccc2[nH]c3c(c2c1)CCc1c[nH]nc1-3

>  <Name>  (643) 
nan

>  <Pocket>  (643) 
nan

>  <ATP_Site>  (643) 
nan

>  <Peripheral>  (643) 
nan

>  <Num_H_Atoms_ProtBoundConf>  (643) 
nan

>  <Num_Resolved_Atoms>  (643) 
nan

>  <Num_Not_Resolved_Atoms>  (643) 
nan

$$$$
CHEMBL1423090
     RDKit          3D

  0  0  0  0  0  0  0  0  0  0999 V3000
M  V30 BEGIN CTAB
M  V30 COUNTS 61 63 0 0 0
M  V30 BEGIN ATOM
M  V30 1 C 7.865252 -1.740590 0.291552 0
M  V30 2 O 6.466333 -1.651540 0.486543 0
M  V30 3 C 5.875668 -0.415550 0.261899 0
M  V30 4 C 6.553848 0.725683 -0.138016 0
M  V30 5 C 5.907359 1.927997 -0.344614 0
M  V30 6 O 6.637582 3.046528 -0.746709 0
M  V30 7 C 8.028092 2.854700 -0.916102 0
M  V30 8 C 4.542071 2.045187 -0.159403 0
M  V30 9 C 3.821012 0.939004 0.238357 0
M  V30 10 C 2.382687 0.904393 0.478047 0
M  V30 11 N 2.090874 0.783354 1.809072 0
M  V30 12 C 0.739779 0.758536 1.945589 0
M  V30 13 N -0.063757 0.655177 3.019429 0
M  V30 14 C -1.409257 0.647340 2.958762 0
M  V30 15 C -2.098914 0.526127 4.267428 0
M  V30 16 C -1.981146 0.754786 1.683804 0
M  V30 17 C -3.455628 0.757889 1.640452 0
M  V30 18 C -4.045970 -0.573958 1.911287 0
M  V30 19 C -3.695265 -1.666518 1.011655 0
M  V30 20 O -2.991358 -1.799150 -0.004281 0
M  V30 21 N -4.304658 -2.897158 1.377075 0
M  V30 22 C -4.228819 -4.180145 0.766216 0
M  V30 23 C -4.765420 -4.285098 -0.634327 0
M  V30 24 O -4.162675 -3.490355 -1.568953 0
M  V30 25 C -5.070432 -2.691099 -2.269925 0
M  V30 26 O -4.662099 -5.630492 -1.083550 0
M  V30 27 C -5.953272 -6.121818 -1.345895 0
M  V30 28 C -1.135226 0.859656 0.604618 0
M  V30 29 C -1.658167 0.994629 -0.748190 0
M  V30 30 N 0.206778 0.863589 0.708086 0
M  V30 31 N 1.201700 0.950610 -0.165174 0
M  V30 32 C 4.518448 -0.250275 0.433537 0
M  V30 33 H 8.235725 -2.780951 0.413097 0
M  V30 34 H 8.097733 -1.324428 -0.704532 0
M  V30 35 H 8.392305 -1.152522 1.099038 0
M  V30 36 H 7.632470 0.611282 -0.278862 0
M  V30 37 H 8.565951 3.798921 -1.116965 0
M  V30 38 H 8.290642 2.131452 -1.708865 0
M  V30 39 H 8.493242 2.445632 0.020071 0
M  V30 40 H 3.991898 2.963097 -0.308214 0
M  V30 41 H -1.468550 1.063220 5.038158 0
M  V30 42 H -3.099720 0.947470 4.312241 0
M  V30 43 H -2.053737 -0.544901 4.626391 0
M  V30 44 H -3.877226 1.266321 0.749144 0
M  V30 45 H -3.790957 1.429705 2.489675 0
M  V30 46 H -5.159852 -0.545848 2.006523 0
M  V30 47 H -3.709723 -0.899048 2.941576 0
M  V30 48 H -4.939081 -2.953018 2.237272 0
M  V30 49 H -3.150276 -4.534094 0.685778 0
M  V30 50 H -4.715965 -5.004928 1.337100 0
M  V30 51 H -5.859134 -4.076356 -0.653545 0
M  V30 52 H -4.481108 -2.082746 -2.997789 0
M  V30 53 H -5.718417 -3.332592 -2.888147 0
M  V30 54 H -5.661752 -2.059457 -1.576340 0
M  V30 55 H -6.405260 -5.488515 -2.126505 0
M  V30 56 H -5.918826 -7.152239 -1.732840 0
M  V30 57 H -6.601435 -6.031992 -0.444690 0
M  V30 58 H -2.724180 1.096713 -0.882430 0
M  V30 59 H -1.314623 0.174592 -1.413787 0
M  V30 60 H -1.198159 1.919904 -1.206050 0
M  V30 61 H 3.964783 -1.146731 0.750657 0
M  V30 END ATOM
M  V30 BEGIN BOND
M  V30 1 1 1 2
M  V30 2 1 2 3
M  V30 3 2 3 4
M  V30 4 1 4 5
M  V30 5 1 5 6
M  V30 6 1 6 7
M  V30 7 2 5 8
M  V30 8 1 8 9
M  V30 9 1 9 10
M  V30 10 1 10 11
M  V30 11 2 11 12
M  V30 12 1 12 13
M  V30 13 2 13 14
M  V30 14 1 14 15
M  V30 15 1 14 16
M  V30 16 1 16 17
M  V30 17 1 17 18
M  V30 18 1 18 19
M  V30 19 2 19 20
M  V30 20 1 19 21
M  V30 21 1 21 22
M  V30 22 1 22 23
M  V30 23 1 23 24
M  V30 24 1 24 25
M  V30 25 1 23 26
M  V30 26 1 26 27
M  V30 27 2 16 28
M  V30 28 1 28 29
M  V30 29 1 28 30
M  V30 30 1 30 31
M  V30 31 2 9 32
M  V30 32 1 32 3
M  V30 33 2 31 10
M  V30 34 1 30 12
M  V30 35 1 1 33
M  V30 36 1 1 34
M  V30 37 1 1 35
M  V30 38 1 4 36
M  V30 39 1 7 37
M  V30 40 1 7 38
M  V30 41 1 7 39
M  V30 42 1 8 40
M  V30 43 1 15 41
M  V30 44 1 15 42
M  V30 45 1 15 43
M  V30 46 1 17 44
M  V30 47 1 17 45
M  V30 48 1 18 46
M  V30 49 1 18 47
M  V30 50 1 21 48
M  V30 51 1 22 49
M  V30 52 1 22 50
M  V30 53 1 23 51
M  V30 54 1 25 52
M  V30 55 1 25 53
M  V30 56 1 25 54
M  V30 57 1 27 55
M  V30 58 1 27 56
M  V30 59 1 27 57
M  V30 60 1 29 58
M  V30 61 1 29 59
M  V30 62 1 29 60
M  V30 63 1 32 61
M  V30 END BOND
M  V30 END CTAB
M  END
>  <Dataset>  (644) 
ChEMBL_Kinases

>  <Ligand_Instance>  (644) 
nan

>  <PDB_ID>  (644) 
nan

>  <Standardized_SMILES>  (644) 
COc1cc(OC)cc(-c2nc3nc(C)c(CCC(=O)NCC(OC)OC)c(C)n3n2)c1

>  <Name>  (644) 
nan

>  <Pocket>  (644) 
nan

>  <ATP_Site>  (644) 
nan

>  <Peripheral>  (644) 
nan

>  <Num_H_Atoms_ProtBoundConf>  (644) 
nan

>  <Num_Resolved_Atoms>  (644) 
nan

>  <Num_Not_Resolved_Atoms>  (644) 
nan

$$$$
CHEMBL1423064
     RDKit          3D

  0  0  0  0  0  0  0  0  0  0999 V3000
M  V30 BEGIN CTAB
M  V30 COUNTS 59 63 0 0 0
M  V30 BEGIN ATOM
M  V30 1 C 1.788427 0.469060 3.183742 0
M  V30 2 C 3.062770 -0.253772 2.945067 0
M  V30 3 C 3.579332 -1.232358 3.775976 0
M  V30 4 C 4.771756 -1.849292 3.471271 0
M  V30 5 C 5.475275 -1.492031 2.315267 0
M  V30 6 Cl 6.985565 -2.299350 1.963659 0
M  V30 7 C 4.928974 -0.508843 1.506504 0
M  V30 8 C 3.723109 0.114550 1.815307 0
M  V30 9 N 3.371917 1.085249 0.838069 0
M  V30 10 C 3.149158 2.514094 0.933822 0
M  V30 11 C 2.062859 2.994395 0.028776 0
M  V30 12 N 1.145885 1.911350 -0.260304 0
M  V30 13 C -0.212528 2.148020 0.068414 0
M  V30 14 O -0.347292 3.301613 0.570457 0
M  V30 15 C -1.364319 1.240906 -0.113034 0
M  V30 16 C -2.635521 1.909241 0.399182 0
M  V30 17 C -3.725856 0.831198 0.466332 0
M  V30 18 N -3.397485 -0.164042 -0.499899 0
M  V30 19 C -3.512626 -1.582247 -0.148244 0
M  V30 20 N -3.825911 -2.286317 0.782463 0
M  V30 21 N -3.803765 -3.572222 0.732291 0
M  V30 22 C -3.475516 -4.233915 -0.226583 0
M  V30 23 N -3.427335 -5.701967 -0.350699 0
M  V30 24 C -4.457586 -6.443579 -0.714681 0
M  V30 25 C -3.923549 -7.719887 -0.683333 0
M  V30 26 C -2.597385 -7.693393 -0.302825 0
M  V30 27 C -2.289133 -6.365820 -0.089188 0
M  V30 28 S -3.081374 -2.791947 -1.404244 0
M  V30 29 C -2.961211 0.324794 -1.794071 0
M  V30 30 C -1.555074 0.844084 -1.570370 0
M  V30 31 C 1.700116 0.708078 -0.848394 0
M  V30 32 C 3.182637 0.628218 -0.547091 0
M  V30 33 H 1.138055 0.488961 2.279218 0
M  V30 34 H 1.928097 1.466534 3.626440 0
M  V30 35 H 1.200938 -0.105094 3.955637 0
M  V30 36 H 2.994778 -1.482162 4.672902 0
M  V30 37 H 5.170495 -2.622010 4.135788 0
M  V30 38 H 5.545810 -0.304115 0.639346 0
M  V30 39 H 3.029304 2.843950 2.001127 0
M  V30 40 H 4.123891 2.987642 0.618861 0
M  V30 41 H 1.572250 3.911896 0.391998 0
M  V30 42 H 2.533632 3.246232 -0.967340 0
M  V30 43 H -1.197098 0.354513 0.530440 0
M  V30 44 H -2.918425 2.714688 -0.288028 0
M  V30 45 H -2.443805 2.342818 1.389556 0
M  V30 46 H -4.655413 1.333740 0.103780 0
M  V30 47 H -3.890782 0.460410 1.483935 0
M  V30 48 H -5.449083 -6.140118 -0.968559 0
M  V30 49 H -4.448269 -8.659746 -0.921839 0
M  V30 50 H -1.900863 -8.517800 -0.182309 0
M  V30 51 H -1.343949 -5.944348 0.220512 0
M  V30 52 H -2.927788 -0.512789 -2.494205 0
M  V30 53 H -3.657874 1.130445 -2.095106 0
M  V30 54 H -1.295888 1.673596 -2.254150 0
M  V30 55 H -0.864234 -0.002639 -1.760451 0
M  V30 56 H 1.581707 0.794391 -1.947146 0
M  V30 57 H 1.163106 -0.201325 -0.506783 0
M  V30 58 H 3.579170 -0.393789 -0.677721 0
M  V30 59 H 3.766798 1.287315 -1.219995 0
M  V30 END ATOM
M  V30 BEGIN BOND
M  V30 1 1 1 2
M  V30 2 2 2 3
M  V30 3 1 3 4
M  V30 4 2 4 5
M  V30 5 1 5 6
M  V30 6 1 5 7
M  V30 7 2 7 8
M  V30 8 1 8 9
M  V30 9 1 9 10
M  V30 10 1 10 11
M  V30 11 1 11 12
M  V30 12 1 12 13
M  V30 13 2 13 14
M  V30 14 1 13 15
M  V30 15 1 15 16
M  V30 16 1 16 17
M  V30 17 1 17 18
M  V30 18 1 18 19
M  V30 19 2 19 20
M  V30 20 1 20 21
M  V30 21 2 21 22
M  V30 22 1 22 23
M  V30 23 1 23 24
M  V30 24 2 24 25
M  V30 25 1 25 26
M  V30 26 2 26 27
M  V30 27 1 22 28
M  V30 28 1 18 29
M  V30 29 1 29 30
M  V30 30 1 12 31
M  V30 31 1 31 32
M  V30 32 1 8 2
M  V30 33 1 32 9
M  V30 34 1 30 15
M  V30 35 1 28 19
M  V30 36 1 27 23
M  V30 37 1 1 33
M  V30 38 1 1 34
M  V30 39 1 1 35
M  V30 40 1 3 36
M  V30 41 1 4 37
M  V30 42 1 7 38
M  V30 43 1 10 39
M  V30 44 1 10 40
M  V30 45 1 11 41
M  V30 46 1 11 42
M  V30 47 1 15 43
M  V30 48 1 16 44
M  V30 49 1 16 45
M  V30 50 1 17 46
M  V30 51 1 17 47
M  V30 52 1 24 48
M  V30 53 1 25 49
M  V30 54 1 26 50
M  V30 55 1 27 51
M  V30 56 1 29 52
M  V30 57 1 29 53
M  V30 58 1 30 54
M  V30 59 1 30 55
M  V30 60 1 31 56
M  V30 61 1 31 57
M  V30 62 1 32 58
M  V30 63 1 32 59
M  V30 END BOND
M  V30 END CTAB
M  END
>  <Dataset>  (645) 
ChEMBL_Kinases

>  <Ligand_Instance>  (645) 
nan

>  <PDB_ID>  (645) 
nan

>  <Standardized_SMILES>  (645) 
Cc1ccc(Cl)cc1N1CCN(C(=O)C2CCN(c3nnc(-n4cccc4)s3)CC2)CC1

>  <Name>  (645) 
nan

>  <Pocket>  (645) 
nan

>  <ATP_Site>  (645) 
nan

>  <Peripheral>  (645) 
nan

>  <Num_H_Atoms_ProtBoundConf>  (645) 
nan

>  <Num_Resolved_Atoms>  (645) 
nan

>  <Num_Not_Resolved_Atoms>  (645) 
nan

$$$$
CHEMBL1423004
     RDKit          3D

  0  0  0  0  0  0  0  0  0  0999 V3000
M  V30 BEGIN CTAB
M  V30 COUNTS 47 51 0 0 0
M  V30 BEGIN ATOM
M  V30 1 O 1.235522 -4.132602 -1.947891 0
M  V30 2 C 0.856629 -2.958118 -1.631555 0
M  V30 3 C 1.332517 -2.412343 -0.345287 0
M  V30 4 S 0.215302 -2.781736 1.035931 0
M  V30 5 C -1.330039 -1.927946 0.790868 0
M  V30 6 N -2.343717 -2.524908 0.103239 0
M  V30 7 N -3.331637 -1.639240 0.100543 0
M  V30 8 N -2.957777 -0.564718 0.742701 0
M  V30 9 N -1.701900 -0.710680 1.191839 0
M  V30 10 C -0.882906 0.214680 1.948515 0
M  V30 11 C 0.104845 0.956964 1.058066 0
M  V30 12 C -0.336878 2.410832 1.120263 0
M  V30 13 C -0.030957 3.037849 2.464964 0
M  V30 14 C -0.853374 2.158954 3.411434 0
M  V30 15 C -1.723709 1.331220 2.530538 0
M  V30 16 C -1.835725 2.223439 1.285738 0
M  V30 17 N 0.011409 -2.136439 -2.424228 0
M  V30 18 C -0.676757 -2.151985 -3.640781 0
M  V30 19 C -1.960074 -2.617378 -3.676082 0
M  V30 20 C -2.626310 -2.624054 -4.889793 0
M  V30 21 N -2.025850 -2.182678 -6.011347 0
M  V30 22 C -0.763097 -1.725573 -5.972523 0
M  V30 23 C -0.128134 -1.268555 -7.108573 0
M  V30 24 C 1.180671 -0.783390 -7.125894 0
M  V30 25 C 1.852955 -0.776918 -5.899839 0
M  V30 26 C 1.276429 -1.221223 -4.718919 0
M  V30 27 C -0.039360 -1.694437 -4.775479 0
M  V30 28 H 2.374662 -2.736581 -0.117973 0
M  V30 29 H 1.386036 -1.294600 -0.429038 0
M  V30 30 H -0.320740 -0.240880 2.770113 0
M  V30 31 H 0.025869 0.653843 -0.004112 0
M  V30 32 H 1.152483 0.809809 1.399792 0
M  V30 33 H -0.044538 3.000856 0.255150 0
M  V30 34 H 1.027252 3.078471 2.718912 0
M  V30 35 H -0.553112 4.018658 2.457115 0
M  V30 36 H -0.177566 1.470098 3.980621 0
M  V30 37 H -1.436714 2.762055 4.132216 0
M  V30 38 H -2.685399 1.018178 2.924189 0
M  V30 39 H -2.331990 3.188120 1.506240 0
M  V30 40 H -2.249090 1.689609 0.424297 0
M  V30 41 H -0.250429 -1.171531 -2.076660 0
M  V30 42 H -2.519453 -2.989150 -2.832167 0
M  V30 43 H -3.645364 -2.974484 -5.014668 0
M  V30 44 H -0.710368 -1.301061 -8.032752 0
M  V30 45 H 1.655731 -0.431951 -8.024097 0
M  V30 46 H 2.885208 -0.412102 -5.823768 0
M  V30 47 H 1.827606 -1.201039 -3.790448 0
M  V30 END ATOM
M  V30 BEGIN BOND
M  V30 1 2 1 2
M  V30 2 1 2 3
M  V30 3 1 3 4
M  V30 4 1 4 5
M  V30 5 2 5 6
M  V30 6 1 6 7
M  V30 7 2 7 8
M  V30 8 1 8 9
M  V30 9 1 9 10
M  V30 10 1 10 11
M  V30 11 1 11 12
M  V30 12 1 12 13
M  V30 13 1 13 14
M  V30 14 1 14 15
M  V30 15 1 15 16
M  V30 16 1 2 17
M  V30 17 1 17 18
M  V30 18 2 18 19
M  V30 19 1 19 20
M  V30 20 2 20 21
M  V30 21 1 21 22
M  V30 22 2 22 23
M  V30 23 1 23 24
M  V30 24 2 24 25
M  V30 25 1 25 26
M  V30 26 2 26 27
M  V30 27 1 9 5
M  V30 28 1 15 10
M  V30 29 1 27 18
M  V30 30 1 16 12
M  V30 31 1 27 22
M  V30 32 1 3 28
M  V30 33 1 3 29
M  V30 34 1 10 30
M  V30 35 1 11 31
M  V30 36 1 11 32
M  V30 37 1 12 33
M  V30 38 1 13 34
M  V30 39 1 13 35
M  V30 40 1 14 36
M  V30 41 1 14 37
M  V30 42 1 15 38
M  V30 43 1 16 39
M  V30 44 1 16 40
M  V30 45 1 17 41
M  V30 46 1 19 42
M  V30 47 1 20 43
M  V30 48 1 23 44
M  V30 49 1 24 45
M  V30 50 1 25 46
M  V30 51 1 26 47
M  V30 END BOND
M  V30 END CTAB
M  END
>  <Dataset>  (646) 
ChEMBL_Kinases

>  <Ligand_Instance>  (646) 
nan

>  <PDB_ID>  (646) 
nan

>  <Standardized_SMILES>  (646) 
O=C(CSc1nnnn1C1CC2CCC1C2)Nc1ccnc2ccccc12

>  <Name>  (646) 
nan

>  <Pocket>  (646) 
nan

>  <ATP_Site>  (646) 
nan

>  <Peripheral>  (646) 
nan

>  <Num_H_Atoms_ProtBoundConf>  (646) 
nan

>  <Num_Resolved_Atoms>  (646) 
nan

>  <Num_Not_Resolved_Atoms>  (646) 
nan

$$$$
CHEMBL1423
     RDKit          3D

  0  0  0  0  0  0  0  0  0  0999 V3000
M  V30 BEGIN CTAB
M  V30 COUNTS 63 67 0 0 0
M  V30 BEGIN ATOM
M  V30 1 O 1.519068 -0.487136 -0.682040 0
M  V30 2 C 2.383966 -0.020275 0.072487 0
M  V30 3 N 3.407887 -0.706231 0.588436 0
M  V30 4 C 4.084762 0.164558 1.332572 0
M  V30 5 C 5.238774 -0.096665 2.069273 0
M  V30 6 C 5.802780 0.927700 2.779555 0
M  V30 7 C 5.200113 2.176079 2.732901 0
M  V30 8 C 4.069102 2.395977 1.999864 0
M  V30 9 C 3.467276 1.384487 1.266844 0
M  V30 10 N 2.381368 1.251432 0.457834 0
M  V30 11 C 1.529319 2.391725 0.202435 0
M  V30 12 C 0.931729 2.864464 1.480140 0
M  V30 13 C -0.520389 2.572014 1.660421 0
M  V30 14 N -0.965738 1.412840 0.911603 0
M  V30 15 C -2.315041 1.094416 1.276438 0
M  V30 16 C -2.917497 -0.100353 0.639236 0
M  V30 17 C -2.142632 -1.368130 0.970622 0
M  V30 18 C -2.768255 -2.580523 0.337092 0
M  V30 19 C -2.777192 -2.425199 -1.130767 0
M  V30 20 C -3.937635 -2.798357 -1.820141 0
M  V30 21 C -4.003015 -2.684278 -3.185977 0
M  V30 22 C -2.952848 -2.206563 -3.936827 0
M  V30 23 F -2.995550 -2.085303 -5.291205 0
M  V30 24 C -1.798740 -1.833083 -3.275144 0
M  V30 25 C -1.755444 -1.955863 -1.907932 0
M  V30 26 C -2.042259 -3.783911 0.805660 0
M  V30 27 C -2.802190 -4.920500 0.948146 0
M  V30 28 C -2.345051 -6.168664 1.372242 0
M  V30 29 C -0.984408 -6.247864 1.674857 0
M  V30 30 F -0.429105 -7.408654 2.096492 0
M  V30 31 C -0.202061 -5.119275 1.539038 0
M  V30 32 C -0.707969 -3.894077 1.110987 0
M  V30 33 C -0.765144 1.583823 -0.501332 0
M  V30 34 C 0.531818 2.217058 -0.877524 0
M  V30 35 H 3.615814 -1.725517 0.425254 0
M  V30 36 H 5.695740 -1.078096 2.093831 0
M  V30 37 H 6.705500 0.713518 3.353136 0
M  V30 38 H 5.692625 2.938306 3.312862 0
M  V30 39 H 3.611135 3.375778 1.972743 0
M  V30 40 H 2.239050 3.206785 -0.138175 0
M  V30 41 H 1.456993 2.405475 2.368057 0
M  V30 42 H 1.077857 3.965431 1.644720 0
M  V30 43 H -0.764768 2.427205 2.711856 0
M  V30 44 H -1.099545 3.437180 1.266417 0
M  V30 45 H -2.396825 0.958751 2.380948 0
M  V30 46 H -2.916597 2.007930 1.073553 0
M  V30 47 H -3.130540 0.000551 -0.434645 0
M  V30 48 H -3.911243 -0.273178 1.105996 0
M  V30 49 H -1.093585 -1.306491 0.626280 0
M  V30 50 H -2.151928 -1.476684 2.062643 0
M  V30 51 H -3.828287 -2.607018 0.716806 0
M  V30 52 H -4.820454 -3.188511 -1.297641 0
M  V30 53 H -4.895388 -2.967922 -3.746885 0
M  V30 54 H -0.962995 -1.456050 -3.841032 0
M  V30 55 H -0.864449 -1.675553 -1.365126 0
M  V30 56 H -3.869386 -4.926043 0.728623 0
M  V30 57 H -2.986845 -7.026868 1.465639 0
M  V30 58 H 0.873573 -5.119233 1.761394 0
M  V30 59 H -0.107838 -3.020513 1.003825 0
M  V30 60 H -1.594803 2.281341 -0.824535 0
M  V30 61 H -0.918133 0.688691 -1.093648 0
M  V30 62 H 0.310188 3.255378 -1.263888 0
M  V30 63 H 0.959870 1.707121 -1.765001 0
M  V30 END ATOM
M  V30 BEGIN BOND
M  V30 1 2 1 2
M  V30 2 1 2 3
M  V30 3 1 3 4
M  V30 4 2 4 5
M  V30 5 1 5 6
M  V30 6 2 6 7
M  V30 7 1 7 8
M  V30 8 2 8 9
M  V30 9 1 9 10
M  V30 10 1 10 11
M  V30 11 1 11 12
M  V30 12 1 12 13
M  V30 13 1 13 14
M  V30 14 1 14 15
M  V30 15 1 15 16
M  V30 16 1 16 17
M  V30 17 1 17 18
M  V30 18 1 18 19
M  V30 19 2 19 20
M  V30 20 1 20 21
M  V30 21 2 21 22
M  V30 22 1 22 23
M  V30 23 1 22 24
M  V30 24 2 24 25
M  V30 25 1 18 26
M  V30 26 2 26 27
M  V30 27 1 27 28
M  V30 28 2 28 29
M  V30 29 1 29 30
M  V30 30 1 29 31
M  V30 31 2 31 32
M  V30 32 1 14 33
M  V30 33 1 33 34
M  V30 34 1 10 2
M  V30 35 1 34 11
M  V30 36 1 9 4
M  V30 37 1 25 19
M  V30 38 1 32 26
M  V30 39 1 3 35
M  V30 40 1 5 36
M  V30 41 1 6 37
M  V30 42 1 7 38
M  V30 43 1 8 39
M  V30 44 1 11 40
M  V30 45 1 12 41
M  V30 46 1 12 42
M  V30 47 1 13 43
M  V30 48 1 13 44
M  V30 49 1 15 45
M  V30 50 1 15 46
M  V30 51 1 16 47
M  V30 52 1 16 48
M  V30 53 1 17 49
M  V30 54 1 17 50
M  V30 55 1 18 51
M  V30 56 1 20 52
M  V30 57 1 21 53
M  V30 58 1 24 54
M  V30 59 1 25 55
M  V30 60 1 27 56
M  V30 61 1 28 57
M  V30 62 1 31 58
M  V30 63 1 32 59
M  V30 64 1 33 60
M  V30 65 1 33 61
M  V30 66 1 34 62
M  V30 67 1 34 63
M  V30 END BOND
M  V30 END CTAB
M  END
>  <Dataset>  (647) 
ChEMBL_Kinases

>  <Ligand_Instance>  (647) 
nan

>  <PDB_ID>  (647) 
nan

>  <Standardized_SMILES>  (647) 
O=c1[nH]c2ccccc2n1C1CCN(CCCC(c2ccc(F)cc2)c2ccc(F)cc2)CC1

>  <Name>  (647) 
PIMOZIDE

>  <Pocket>  (647) 
nan

>  <ATP_Site>  (647) 
nan

>  <Peripheral>  (647) 
nan

>  <Num_H_Atoms_ProtBoundConf>  (647) 
nan

>  <Num_Resolved_Atoms>  (647) 
nan

>  <Num_Not_Resolved_Atoms>  (647) 
nan

$$$$
CHEMBL1422947
     RDKit          3D

  0  0  0  0  0  0  0  0  0  0999 V3000
M  V30 BEGIN CTAB
M  V30 COUNTS 45 49 0 0 0
M  V30 BEGIN ATOM
M  V30 1 C 0.543989 -5.749479 -1.042002 0
M  V30 2 C 0.561889 -4.313002 -0.680395 0
M  V30 3 C 1.354365 -3.890870 0.363050 0
M  V30 4 C 1.343852 -2.544202 0.669504 0
M  V30 5 C 0.576104 -1.607975 -0.022771 0
M  V30 6 C -0.222684 -2.053121 -1.079189 0
M  V30 7 C -1.024945 -1.032297 -1.792593 0
M  V30 8 C -0.157603 -0.074060 -2.530749 0
M  V30 9 C -0.091649 1.247344 -2.427229 0
M  V30 10 C 0.818609 2.137783 -3.211212 0
M  V30 11 C 2.141258 1.375061 -3.335141 0
M  V30 12 C 1.986973 0.031355 -3.962658 0
M  V30 13 C 0.751843 -0.658733 -3.507989 0
M  V30 14 O 0.595937 -1.770027 -4.052715 0
M  V30 15 N -0.989007 1.916604 -1.511594 0
M  V30 16 C -1.800283 1.150629 -0.865658 0
M  V30 17 C -2.834747 1.484057 0.142139 0
M  V30 18 C -3.564396 2.643781 0.440770 0
M  V30 19 C -4.481913 2.695625 1.474822 0
M  V30 20 C -4.702991 1.562924 2.260141 0
M  V30 21 C -3.993219 0.442920 1.965400 0
M  V30 22 C -3.049769 0.336616 0.926553 0
M  V30 23 C -2.181925 -0.769101 0.437862 0
M  V30 24 O -1.862864 -1.669191 1.272751 0
M  V30 25 C -2.021165 -0.341390 -0.952816 0
M  V30 26 C -0.204114 -3.402114 -1.376596 0
M  V30 27 H -0.301921 -6.008282 -1.699433 0
M  V30 28 H 0.507519 -6.334264 -0.094817 0
M  V30 29 H 1.480271 -5.989001 -1.597911 0
M  V30 30 H 1.948919 -4.610752 0.900387 0
M  V30 31 H 1.994866 -2.282114 1.506583 0
M  V30 32 H 0.651685 -0.585004 0.309533 0
M  V30 33 H -1.580291 -1.600437 -2.589735 0
M  V30 34 H 1.023123 3.049008 -2.647121 0
M  V30 35 H 0.378999 2.306673 -4.201409 0
M  V30 36 H 2.840370 2.009541 -3.922223 0
M  V30 37 H 2.534030 1.302663 -2.292851 0
M  V30 38 H 2.118854 0.028023 -5.060920 0
M  V30 39 H 2.830375 -0.610351 -3.572255 0
M  V30 40 H -3.395672 3.535604 -0.170635 0
M  V30 41 H -5.033007 3.597227 1.688355 0
M  V30 42 H -5.415713 1.586460 3.071553 0
M  V30 43 H -4.194208 -0.426844 2.605638 0
M  V30 44 H -3.069785 -0.398992 -1.400180 0
M  V30 45 H -0.832541 -3.740371 -2.204879 0
M  V30 END ATOM
M  V30 BEGIN BOND
M  V30 1 1 1 2
M  V30 2 2 2 3
M  V30 3 1 3 4
M  V30 4 2 4 5
M  V30 5 1 5 6
M  V30 6 1 6 7
M  V30 7 1 7 8
M  V30 8 2 8 9
M  V30 9 1 9 10
M  V30 10 1 10 11
M  V30 11 1 11 12
M  V30 12 1 12 13
M  V30 13 2 13 14
M  V30 14 1 9 15
M  V30 15 2 15 16
M  V30 16 1 16 17
M  V30 17 2 17 18
M  V30 18 1 18 19
M  V30 19 2 19 20
M  V30 20 1 20 21
M  V30 21 2 21 22
M  V30 22 1 22 23
M  V30 23 2 23 24
M  V30 24 1 23 25
M  V30 25 2 6 26
M  V30 26 1 26 2
M  V30 27 1 25 7
M  V30 28 1 13 8
M  V30 29 1 25 16
M  V30 30 1 22 17
M  V30 31 1 1 27
M  V30 32 1 1 28
M  V30 33 1 1 29
M  V30 34 1 3 30
M  V30 35 1 4 31
M  V30 36 1 5 32
M  V30 37 1 7 33
M  V30 38 1 10 34
M  V30 39 1 10 35
M  V30 40 1 11 36
M  V30 41 1 11 37
M  V30 42 1 12 38
M  V30 43 1 12 39
M  V30 44 1 18 40
M  V30 45 1 19 41
M  V30 46 1 20 42
M  V30 47 1 21 43
M  V30 48 1 25 44
M  V30 49 1 26 45
M  V30 END BOND
M  V30 END CTAB
M  END
>  <Dataset>  (648) 
ChEMBL_Kinases

>  <Ligand_Instance>  (648) 
nan

>  <PDB_ID>  (648) 
nan

>  <Standardized_SMILES>  (648) 
Cc1cccc(C2C3=C(CCCC3=O)N=C3c4ccccc4C(=O)C32)c1

>  <Name>  (648) 
nan

>  <Pocket>  (648) 
nan

>  <ATP_Site>  (648) 
nan

>  <Peripheral>  (648) 
nan

>  <Num_H_Atoms_ProtBoundConf>  (648) 
nan

>  <Num_Resolved_Atoms>  (648) 
nan

>  <Num_Not_Resolved_Atoms>  (648) 
nan

$$$$
CHEMBL1422772
     RDKit          3D

  0  0  0  0  0  0  0  0  0  0999 V3000
M  V30 BEGIN CTAB
M  V30 COUNTS 42 45 0 0 0
M  V30 BEGIN ATOM
M  V30 1 C -0.012931 -3.984488 3.299668 0
M  V30 2 N 1.380980 -3.894252 3.015543 0
M  V30 3 C 1.984134 -2.964698 2.367357 0
M  V30 4 S 3.694345 -3.478464 2.387593 0
M  V30 5 N 1.489001 -1.783347 1.752586 0
M  V30 6 N 2.083835 -1.406546 0.517167 0
M  V30 7 C 1.798269 -0.164846 0.306239 0
M  V30 8 C 2.172286 0.703119 -0.831774 0
M  V30 9 C 3.364355 0.472293 -1.527767 0
M  V30 10 C 3.665016 1.313020 -2.581714 0
M  V30 11 C 2.797454 2.342891 -2.917242 0
M  V30 12 C 1.624600 2.546225 -2.209253 0
M  V30 13 C 1.291195 1.727057 -1.151175 0
M  V30 14 C 0.044060 1.924756 -0.381388 0
M  V30 15 C 0.083827 1.488256 1.042728 0
M  V30 16 C 1.014814 0.407314 1.387127 0
M  V30 17 C 0.474815 -0.804124 2.079696 0
M  V30 18 C -0.880693 -1.214029 1.688927 0
M  V30 19 C -1.905938 -0.675279 2.460644 0
M  V30 20 C -3.254014 -0.908816 2.302494 0
M  V30 21 C -3.662450 -1.751897 1.293041 0
M  V30 22 C -2.691342 -2.313907 0.497797 0
M  V30 23 C -1.371644 -2.038198 0.711594 0
M  V30 24 Cl -0.180461 -2.789488 -0.320365 0
M  V30 25 H -0.126493 -4.830717 4.039071 0
M  V30 26 H -0.404579 -3.098393 3.835571 0
M  V30 27 H -0.568236 -4.257758 2.389016 0
M  V30 28 H 4.040986 -4.279540 1.306463 0
M  V30 29 H 4.022760 -0.349505 -1.234069 0
M  V30 30 H 4.575682 1.166997 -3.143661 0
M  V30 31 H 3.031736 3.006795 -3.747273 0
M  V30 32 H 0.935568 3.355810 -2.468000 0
M  V30 33 H -0.221246 2.997013 -0.495700 0
M  V30 34 H -0.753792 1.379804 -0.931723 0
M  V30 35 H -0.939752 1.214121 1.347025 0
M  V30 36 H 0.317751 2.389797 1.645797 0
M  V30 37 H 1.791935 0.822607 2.118390 0
M  V30 38 H 0.504030 -0.608440 3.204949 0
M  V30 39 H -1.694298 0.012898 3.295808 0
M  V30 40 H -4.011040 -0.464741 2.930000 0
M  V30 41 H -4.680594 -2.019733 1.058857 0
M  V30 42 H -2.959036 -2.982110 -0.308325 0
M  V30 END ATOM
M  V30 BEGIN BOND
M  V30 1 1 1 2
M  V30 2 2 2 3 CFG=2
M  V30 3 1 3 4
M  V30 4 1 3 5
M  V30 5 1 5 6
M  V30 6 2 6 7
M  V30 7 1 7 8
M  V30 8 2 8 9
M  V30 9 1 9 10
M  V30 10 2 10 11
M  V30 11 1 11 12
M  V30 12 2 12 13
M  V30 13 1 13 14
M  V30 14 1 14 15
M  V30 15 1 15 16
M  V30 16 1 16 17
M  V30 17 1 17 18
M  V30 18 2 18 19
M  V30 19 1 19 20
M  V30 20 2 20 21
M  V30 21 1 21 22
M  V30 22 2 22 23
M  V30 23 1 23 24
M  V30 24 1 17 5
M  V30 25 1 23 18
M  V30 26 1 16 7
M  V30 27 1 13 8
M  V30 28 1 1 25
M  V30 29 1 1 26
M  V30 30 1 1 27
M  V30 31 1 4 28
M  V30 32 1 9 29
M  V30 33 1 10 30
M  V30 34 1 11 31
M  V30 35 1 12 32
M  V30 36 1 14 33
M  V30 37 1 14 34
M  V30 38 1 15 35
M  V30 39 1 15 36
M  V30 40 1 16 37
M  V30 41 1 17 38
M  V30 42 1 19 39
M  V30 43 1 20 40
M  V30 44 1 21 41
M  V30 45 1 22 42
M  V30 END BOND
M  V30 END CTAB
M  END
>  <Dataset>  (649) 
ChEMBL_Kinases

>  <Ligand_Instance>  (649) 
nan

>  <PDB_ID>  (649) 
nan

>  <Standardized_SMILES>  (649) 
CN=C(S)N1N=C2c3ccccc3CCC2C1c1ccccc1Cl

>  <Name>  (649) 
nan

>  <Pocket>  (649) 
nan

>  <ATP_Site>  (649) 
nan

>  <Peripheral>  (649) 
nan

>  <Num_H_Atoms_ProtBoundConf>  (649) 
nan

>  <Num_Resolved_Atoms>  (649) 
nan

>  <Num_Not_Resolved_Atoms>  (649) 
nan

$$$$
CHEMBL1422632
     RDKit          3D

  0  0  0  0  0  0  0  0  0  0999 V3000
M  V30 BEGIN CTAB
M  V30 COUNTS 48 50 0 0 0
M  V30 BEGIN ATOM
M  V30 1 C 0.556859 -5.709429 4.082260 0
M  V30 2 O -0.409592 -5.190918 3.208859 0
M  V30 3 C -0.315945 -3.983491 2.542263 0
M  V30 4 C 0.823661 -3.265870 2.778788 0
M  V30 5 C 0.968429 -2.050810 2.137453 0
M  V30 6 C -0.074702 -1.687200 1.311306 0
M  V30 7 C 0.067301 -0.430585 0.643160 0
M  V30 8 O 1.105322 0.298252 0.800396 0
M  V30 9 N 0.089045 0.779875 -0.065992 0
M  V30 10 C 1.211428 1.646022 0.058358 0
M  V30 11 C 2.318627 1.569108 -0.771910 0
M  V30 12 C 3.418375 2.397099 -0.672273 0
M  V30 13 C 3.399076 3.363701 0.328692 0
M  V30 14 C 4.566138 4.262380 0.455359 0
M  V30 15 C 2.323512 3.490740 1.188706 0
M  V30 16 C 1.243592 2.628028 1.040149 0
M  V30 17 C -1.116331 0.940313 -0.849414 0
M  V30 18 C -1.254491 -0.051701 -1.905915 0
M  V30 19 C -2.459696 -0.515631 -2.133685 0
M  V30 20 S -3.572539 0.258660 -1.024082 0
M  V30 21 O -4.392742 1.293922 -1.703895 0
M  V30 22 O -4.371051 -0.768671 -0.308286 0
M  V30 23 C -2.317074 0.995091 0.003230 0
M  V30 24 C -1.219954 -2.411584 1.075451 0
M  V30 25 C -1.358094 -3.621199 1.717424 0
M  V30 26 O -2.445679 -4.462441 1.585081 0
M  V30 27 C -3.550993 -4.150015 0.752714 0
M  V30 28 H 0.348240 -6.808957 4.178327 0
M  V30 29 H 0.564898 -5.263878 5.082784 0
M  V30 30 H 1.588298 -5.642238 3.657196 0
M  V30 31 H 1.604570 -3.614330 3.442982 0
M  V30 32 H 1.838129 -1.432451 2.275815 0
M  V30 33 H 2.289067 0.805053 -1.532998 0
M  V30 34 H 4.251636 2.271538 -1.366540 0
M  V30 35 H 5.051965 4.477763 -0.541348 0
M  V30 36 H 4.288024 5.280587 0.832662 0
M  V30 37 H 5.371104 3.886425 1.099791 0
M  V30 38 H 2.293995 4.237589 1.971821 0
M  V30 39 H 0.375736 2.688017 1.690686 0
M  V30 40 H -1.017547 1.926270 -1.380394 0
M  V30 41 H -0.351474 -0.350878 -2.445246 0
M  V30 42 H -2.700580 -1.260032 -2.894499 0
M  V30 43 H -2.602867 2.009257 0.332890 0
M  V30 44 H -2.221040 0.346677 0.909104 0
M  V30 45 H -2.005883 -2.079218 0.418158 0
M  V30 46 H -4.159766 -3.329733 1.152085 0
M  V30 47 H -3.093183 -3.913646 -0.246770 0
M  V30 48 H -4.201778 -5.024672 0.584022 0
M  V30 END ATOM
M  V30 BEGIN BOND
M  V30 1 1 1 2
M  V30 2 1 2 3
M  V30 3 2 3 4
M  V30 4 1 4 5
M  V30 5 2 5 6
M  V30 6 1 6 7
M  V30 7 2 7 8
M  V30 8 1 7 9
M  V30 9 1 9 10
M  V30 10 2 10 11
M  V30 11 1 11 12
M  V30 12 2 12 13
M  V30 13 1 13 14
M  V30 14 1 13 15
M  V30 15 2 15 16
M  V30 16 1 9 17
M  V30 17 1 17 18
M  V30 18 2 18 19
M  V30 19 1 19 20
M  V30 20 2 20 21
M  V30 21 2 20 22
M  V30 22 1 20 23
M  V30 23 1 6 24
M  V30 24 2 24 25
M  V30 25 1 25 26
M  V30 26 1 26 27
M  V30 27 1 25 3
M  V30 28 1 16 10
M  V30 29 1 23 17
M  V30 30 1 1 28
M  V30 31 1 1 29
M  V30 32 1 1 30
M  V30 33 1 4 31
M  V30 34 1 5 32
M  V30 35 1 11 33
M  V30 36 1 12 34
M  V30 37 1 14 35
M  V30 38 1 14 36
M  V30 39 1 14 37
M  V30 40 1 15 38
M  V30 41 1 16 39
M  V30 42 1 17 40
M  V30 43 1 18 41
M  V30 44 1 19 42
M  V30 45 1 23 43
M  V30 46 1 23 44
M  V30 47 1 24 45
M  V30 48 1 27 46
M  V30 49 1 27 47
M  V30 50 1 27 48
M  V30 END BOND
M  V30 END CTAB
M  END
>  <Dataset>  (650) 
ChEMBL_Kinases

>  <Ligand_Instance>  (650) 
nan

>  <PDB_ID>  (650) 
nan

>  <Standardized_SMILES>  (650) 
COc1ccc(C(=O)N(c2ccc(C)cc2)C2C=CS(=O)(=O)C2)cc1OC

>  <Name>  (650) 
nan

>  <Pocket>  (650) 
nan

>  <ATP_Site>  (650) 
nan

>  <Peripheral>  (650) 
nan

>  <Num_H_Atoms_ProtBoundConf>  (650) 
nan

>  <Num_Resolved_Atoms>  (650) 
nan

>  <Num_Not_Resolved_Atoms>  (650) 
nan

$$$$
CHEMBL1422629
     RDKit          3D

  0  0  0  0  0  0  0  0  0  0999 V3000
M  V30 BEGIN CTAB
M  V30 COUNTS 27 28 0 0 0
M  V30 BEGIN ATOM
M  V30 1 C -1.650957 -0.396013 3.422806 0
M  V30 2 N -0.441786 0.386485 3.246636 0
M  V30 3 C 0.099281 1.308252 4.231899 0
M  V30 4 C 0.272373 0.247517 2.023527 0
M  V30 5 O -0.132881 -0.563650 1.060520 0
M  V30 6 C 0.723203 -0.487776 0.045768 0
M  V30 7 C 0.559598 -1.264665 -1.179737 0
M  V30 8 C -0.530512 -2.104535 -1.271533 0
M  V30 9 C -0.649048 -2.829844 -2.461892 0
M  V30 10 C 0.250701 -2.736539 -3.503048 0
M  V30 11 C 1.331431 -1.881989 -3.371256 0
M  V30 12 C 1.491058 -1.137977 -2.201560 0
M  V30 13 N 1.693110 0.388327 0.367189 0
M  V30 14 C 1.431423 0.867443 1.612584 0
M  V30 15 C 2.182932 1.816114 2.363990 0
M  V30 16 N 2.794015 2.594670 2.955381 0
M  V30 17 H -1.575010 -1.421419 3.012491 0
M  V30 18 H -2.004044 -0.383103 4.472224 0
M  V30 19 H -2.427585 0.138073 2.802612 0
M  V30 20 H 0.064667 2.366889 3.870389 0
M  V30 21 H -0.490476 1.267584 5.181621 0
M  V30 22 H 1.121361 0.975050 4.511290 0
M  V30 23 H -1.275806 -2.227963 -0.495018 0
M  V30 24 H -1.501168 -3.510500 -2.578611 0
M  V30 25 H 0.114888 -3.321463 -4.408704 0
M  V30 26 H 2.071369 -1.771226 -4.164128 0
M  V30 27 H 2.323522 -0.462104 -2.067204 0
M  V30 END ATOM
M  V30 BEGIN BOND
M  V30 1 1 1 2
M  V30 2 1 2 3
M  V30 3 1 2 4
M  V30 4 1 4 5
M  V30 5 1 5 6
M  V30 6 1 6 7
M  V30 7 2 7 8
M  V30 8 1 8 9
M  V30 9 2 9 10
M  V30 10 1 10 11
M  V30 11 2 11 12
M  V30 12 2 6 13
M  V30 13 1 13 14
M  V30 14 1 14 15
M  V30 15 3 15 16
M  V30 16 2 14 4
M  V30 17 1 12 7
M  V30 18 1 1 17
M  V30 19 1 1 18
M  V30 20 1 1 19
M  V30 21 1 3 20
M  V30 22 1 3 21
M  V30 23 1 3 22
M  V30 24 1 8 23
M  V30 25 1 9 24
M  V30 26 1 10 25
M  V30 27 1 11 26
M  V30 28 1 12 27
M  V30 END BOND
M  V30 END CTAB
M  END
>  <Dataset>  (651) 
ChEMBL_Kinases

>  <Ligand_Instance>  (651) 
nan

>  <PDB_ID>  (651) 
nan

>  <Standardized_SMILES>  (651) 
CN(C)c1oc(-c2ccccc2)nc1C#N

>  <Name>  (651) 
nan

>  <Pocket>  (651) 
nan

>  <ATP_Site>  (651) 
nan

>  <Peripheral>  (651) 
nan

>  <Num_H_Atoms_ProtBoundConf>  (651) 
nan

>  <Num_Resolved_Atoms>  (651) 
nan

>  <Num_Not_Resolved_Atoms>  (651) 
nan

$$$$
CHEMBL1422581
     RDKit          3D

  0  0  0  0  0  0  0  0  0  0999 V3000
M  V30 BEGIN CTAB
M  V30 COUNTS 29 30 0 0 0
M  V30 BEGIN ATOM
M  V30 1 C 2.034294 -3.822986 -0.304941 0
M  V30 2 C 2.595584 -2.437205 -0.554955 0
M  V30 3 N 1.589787 -1.512607 -0.067698 0
M  V30 4 C 1.564033 -1.057139 1.196655 0
M  V30 5 S 2.848324 -1.643134 2.298566 0
M  V30 6 C 2.719114 -0.974404 3.955644 0
M  V30 7 N 0.658994 -0.215420 1.663236 0
M  V30 8 C -0.357487 0.285668 0.899298 0
M  V30 9 C -0.348973 -0.169568 -0.401735 0
M  V30 10 C 0.608035 -1.047043 -0.858835 0
M  V30 11 O 0.524370 -1.395302 -2.051018 0
M  V30 12 S -1.787959 0.658398 -1.130372 0
M  V30 13 C -2.646950 0.941131 0.472332 0
M  V30 14 C -3.555200 2.132311 0.392372 0
M  V30 15 C -1.410411 1.218435 1.301384 0
M  V30 16 H 0.976763 -3.838073 -0.663854 0
M  V30 17 H 2.083439 -4.069762 0.772740 0
M  V30 18 H 2.572911 -4.593790 -0.913097 0
M  V30 19 H 3.500063 -2.308360 0.070745 0
M  V30 20 H 2.792153 -2.321781 -1.629825 0
M  V30 21 H 3.761089 -0.848752 4.361432 0
M  V30 22 H 2.242212 -1.700429 4.666484 0
M  V30 23 H 2.151632 -0.030140 3.921076 0
M  V30 24 H -3.148442 0.000983 0.716101 0
M  V30 25 H -3.120944 3.062527 0.803457 0
M  V30 26 H -3.878914 2.368431 -0.646468 0
M  V30 27 H -4.499120 1.906183 0.948787 0
M  V30 28 H -1.632205 1.098339 2.370269 0
M  V30 29 H -1.113296 2.261092 1.060915 0
M  V30 END ATOM
M  V30 BEGIN BOND
M  V30 1 1 1 2
M  V30 2 1 2 3
M  V30 3 1 3 4
M  V30 4 1 4 5
M  V30 5 1 5 6
M  V30 6 2 4 7
M  V30 7 1 7 8
M  V30 8 2 8 9
M  V30 9 1 9 10
M  V30 10 2 10 11
M  V30 11 1 9 12
M  V30 12 1 12 13
M  V30 13 1 13 14
M  V30 14 1 13 15
M  V30 15 1 10 3
M  V30 16 1 15 8
M  V30 17 1 1 16
M  V30 18 1 1 17
M  V30 19 1 1 18
M  V30 20 1 2 19
M  V30 21 1 2 20
M  V30 22 1 6 21
M  V30 23 1 6 22
M  V30 24 1 6 23
M  V30 25 1 13 24
M  V30 26 1 14 25
M  V30 27 1 14 26
M  V30 28 1 14 27
M  V30 29 1 15 28
M  V30 30 1 15 29
M  V30 END BOND
M  V30 END CTAB
M  END
>  <Dataset>  (652) 
ChEMBL_Kinases

>  <Ligand_Instance>  (652) 
nan

>  <PDB_ID>  (652) 
nan

>  <Standardized_SMILES>  (652) 
CCn1c(SC)nc2c(c1=O)SC(C)C2

>  <Name>  (652) 
nan

>  <Pocket>  (652) 
nan

>  <ATP_Site>  (652) 
nan

>  <Peripheral>  (652) 
nan

>  <Num_H_Atoms_ProtBoundConf>  (652) 
nan

>  <Num_Resolved_Atoms>  (652) 
nan

>  <Num_Not_Resolved_Atoms>  (652) 
nan

$$$$
CHEMBL1421370
     RDKit          3D

  0  0  0  0  0  0  0  0  0  0999 V3000
M  V30 BEGIN CTAB
M  V30 COUNTS 33 35 0 0 0
M  V30 BEGIN ATOM
M  V30 1 N -0.045748 -1.850546 5.217091 0
M  V30 2 C 1.228726 -2.328691 4.851858 0
M  V30 3 O 1.869933 -2.850854 5.781924 0
M  V30 4 C 1.734075 -2.202739 3.458979 0
M  V30 5 S 0.493948 -1.396235 2.464313 0
M  V30 6 C 0.958816 -1.176093 0.770655 0
M  V30 7 N 2.064250 -1.498397 0.088726 0
M  V30 8 C 1.952133 -1.122279 -1.200670 0
M  V30 9 C 2.829049 -1.242216 -2.278594 0
M  V30 10 C 2.386589 -0.736631 -3.495341 0
M  V30 11 C 1.139712 -0.138279 -3.655025 0
M  V30 12 C 0.345004 -0.063680 -2.543282 0
M  V30 13 C 0.701155 -0.539638 -1.290944 0
M  V30 14 N 0.095604 -0.572545 -0.088782 0
M  V30 15 C -1.209860 -0.031125 0.080400 0
M  V30 16 C -1.248496 1.002488 0.986103 0
M  V30 17 C -2.451139 1.655234 1.278227 0
M  V30 18 C -3.600030 1.225679 0.625142 0
M  V30 19 C -3.561699 0.188777 -0.283545 0
M  V30 20 C -2.356830 -0.460337 -0.571927 0
M  V30 21 H 0.041819 -0.924390 5.730175 0
M  V30 22 H -0.978151 -1.479171 5.496396 0
M  V30 23 H 2.091085 -3.160137 3.055979 0
M  V30 24 H 2.596992 -1.477979 3.541843 0
M  V30 25 H 3.790064 -1.698377 -2.175364 0
M  V30 26 H 3.079542 -0.838726 -4.318165 0
M  V30 27 H 0.847179 0.238150 -4.626304 0
M  V30 28 H -0.635933 0.410260 -2.681611 0
M  V30 29 H -0.397608 1.388856 1.530178 0
M  V30 30 H -2.583014 2.470307 1.968349 0
M  V30 31 H -4.579756 1.693550 0.806565 0
M  V30 32 H -4.436975 -0.186003 -0.823162 0
M  V30 33 H -2.219457 -1.280306 -1.265080 0
M  V30 END ATOM
M  V30 BEGIN BOND
M  V30 1 1 1 2
M  V30 2 2 2 3
M  V30 3 1 2 4
M  V30 4 1 4 5
M  V30 5 1 5 6
M  V30 6 2 6 7
M  V30 7 1 7 8
M  V30 8 2 8 9
M  V30 9 1 9 10
M  V30 10 2 10 11
M  V30 11 1 11 12
M  V30 12 2 12 13
M  V30 13 1 13 14
M  V30 14 1 14 15
M  V30 15 2 15 16
M  V30 16 1 16 17
M  V30 17 2 17 18
M  V30 18 1 18 19
M  V30 19 2 19 20
M  V30 20 1 14 6
M  V30 21 1 20 15
M  V30 22 1 13 8
M  V30 23 1 1 21
M  V30 24 1 1 22
M  V30 25 1 4 23
M  V30 26 1 4 24
M  V30 27 1 9 25
M  V30 28 1 10 26
M  V30 29 1 11 27
M  V30 30 1 12 28
M  V30 31 1 16 29
M  V30 32 1 17 30
M  V30 33 1 18 31
M  V30 34 1 19 32
M  V30 35 1 20 33
M  V30 END BOND
M  V30 END CTAB
M  END
>  <Dataset>  (653) 
ChEMBL_Kinases

>  <Ligand_Instance>  (653) 
nan

>  <PDB_ID>  (653) 
nan

>  <Standardized_SMILES>  (653) 
NC(=O)CSc1nc2ccccc2n1-c1ccccc1

>  <Name>  (653) 
nan

>  <Pocket>  (653) 
nan

>  <ATP_Site>  (653) 
nan

>  <Peripheral>  (653) 
nan

>  <Num_H_Atoms_ProtBoundConf>  (653) 
nan

>  <Num_Resolved_Atoms>  (653) 
nan

>  <Num_Not_Resolved_Atoms>  (653) 
nan

$$$$
CHEMBL1421395
     RDKit          3D

  0  0  0  0  0  0  0  0  0  0999 V3000
M  V30 BEGIN CTAB
M  V30 COUNTS 58 61 0 0 0
M  V30 BEGIN ATOM
M  V30 1 C 2.294092 -3.270488 5.447905 0
M  V30 2 O 2.300645 -1.892651 5.184471 0
M  V30 3 C 2.519672 -1.439552 3.886175 0
M  V30 4 C 2.528003 -0.090421 3.617504 0
M  V30 5 C 2.733059 0.445619 2.383592 0
M  V30 6 C 2.953120 -0.403250 1.293846 0
M  V30 7 N 3.169065 0.137558 -0.001943 0
M  V30 8 S 2.431053 -0.435684 -1.456133 0
M  V30 9 O 2.930864 0.438952 -2.571685 0
M  V30 10 O 2.878002 -1.836110 -1.751550 0
M  V30 11 C 0.700964 -0.283846 -1.388190 0
M  V30 12 C -0.036383 0.210800 -0.332811 0
M  V30 13 C -1.396826 0.287822 -0.394562 0
M  V30 14 N -2.041380 0.824623 0.779339 0
M  V30 15 C -2.377976 -0.166424 1.724536 0
M  V30 16 O -2.089220 -1.336869 1.441583 0
M  V30 17 C -3.049643 0.341827 2.961171 0
M  V30 18 C -3.463115 -0.403738 3.998844 0
M  V30 19 C -4.064533 0.152023 5.079789 0
M  V30 20 C -4.202005 1.567749 4.990379 0
M  V30 21 C -4.838295 2.464477 6.060301 0
M  V30 22 S -3.455407 1.973196 3.362322 0
M  V30 23 C -2.083594 -0.127098 -1.516755 0
M  V30 24 C -1.339091 -0.627658 -2.584779 0
M  V30 25 C 0.051438 -0.707592 -2.524297 0
M  V30 26 N 0.553666 -1.256700 -3.736455 0
M  V30 27 C 1.272709 -2.461762 -4.124010 0
M  V30 28 C 0.626066 -3.121208 -5.349485 0
M  V30 29 O 0.639628 -2.206881 -6.400715 0
M  V30 30 C -0.318448 -1.230442 -6.042047 0
M  V30 31 C 0.317172 -0.438972 -4.912116 0
M  V30 32 C 2.950167 -1.763842 1.534387 0
M  V30 33 C 2.740153 -2.270752 2.791229 0
M  V30 34 H 1.439890 -3.807044 4.987965 0
M  V30 35 H 3.233810 -3.784010 5.137987 0
M  V30 36 H 2.216926 -3.395149 6.558804 0
M  V30 37 H 2.361026 0.629225 4.431866 0
M  V30 38 H 2.728408 1.533687 2.230349 0
M  V30 39 H 3.846149 0.946454 0.026501 0
M  V30 40 H 0.515033 0.522766 0.517260 0
M  V30 41 H -2.223625 1.858855 0.880718 0
M  V30 42 H -3.320165 -1.499962 3.993686 0
M  V30 43 H -4.439345 -0.333434 5.970643 0
M  V30 44 H -5.915091 2.308937 6.119785 0
M  V30 45 H -4.531484 3.511111 5.856820 0
M  V30 46 H -4.378102 2.091181 7.016960 0
M  V30 47 H -3.162370 -0.045257 -1.516048 0
M  V30 48 H -1.990659 -0.924344 -3.416324 0
M  V30 49 H 2.314085 -2.300578 -4.397251 0
M  V30 50 H 1.122639 -3.218903 -3.308360 0
M  V30 51 H 1.263095 -3.969163 -5.618567 0
M  V30 52 H -0.406571 -3.455952 -5.105938 0
M  V30 53 H -1.215999 -1.782481 -5.742114 0
M  V30 54 H -0.514485 -0.518886 -6.845359 0
M  V30 55 H -0.230848 0.485151 -4.715535 0
M  V30 56 H 1.338648 -0.173041 -5.292940 0
M  V30 57 H 3.121885 -2.437688 0.685924 0
M  V30 58 H 2.738138 -3.352030 2.980592 0
M  V30 END ATOM
M  V30 BEGIN BOND
M  V30 1 1 1 2
M  V30 2 1 2 3
M  V30 3 2 3 4
M  V30 4 1 4 5
M  V30 5 2 5 6
M  V30 6 1 6 7
M  V30 7 1 7 8
M  V30 8 2 8 9
M  V30 9 2 8 10
M  V30 10 1 8 11
M  V30 11 2 11 12
M  V30 12 1 12 13
M  V30 13 1 13 14
M  V30 14 1 14 15
M  V30 15 2 15 16
M  V30 16 1 15 17
M  V30 17 2 17 18
M  V30 18 1 18 19
M  V30 19 2 19 20
M  V30 20 1 20 21
M  V30 21 1 20 22
M  V30 22 2 13 23
M  V30 23 1 23 24
M  V30 24 2 24 25
M  V30 25 1 25 26
M  V30 26 1 26 27
M  V30 27 1 27 28
M  V30 28 1 28 29
M  V30 29 1 29 30
M  V30 30 1 30 31
M  V30 31 1 6 32
M  V30 32 2 32 33
M  V30 33 1 33 3
M  V30 34 1 25 11
M  V30 35 1 31 26
M  V30 36 1 22 17
M  V30 37 1 1 34
M  V30 38 1 1 35
M  V30 39 1 1 36
M  V30 40 1 4 37
M  V30 41 1 5 38
M  V30 42 1 7 39
M  V30 43 1 12 40
M  V30 44 1 14 41
M  V30 45 1 18 42
M  V30 46 1 19 43
M  V30 47 1 21 44
M  V30 48 1 21 45
M  V30 49 1 21 46
M  V30 50 1 23 47
M  V30 51 1 24 48
M  V30 52 1 27 49
M  V30 53 1 27 50
M  V30 54 1 28 51
M  V30 55 1 28 52
M  V30 56 1 30 53
M  V30 57 1 30 54
M  V30 58 1 31 55
M  V30 59 1 31 56
M  V30 60 1 32 57
M  V30 61 1 33 58
M  V30 END BOND
M  V30 END CTAB
M  END
>  <Dataset>  (654) 
ChEMBL_Kinases

>  <Ligand_Instance>  (654) 
nan

>  <PDB_ID>  (654) 
nan

>  <Standardized_SMILES>  (654) 
COc1ccc(NS(=O)(=O)c2cc(NC(=O)c3ccc(C)s3)ccc2N2CCOCC2)cc1

>  <Name>  (654) 
nan

>  <Pocket>  (654) 
nan

>  <ATP_Site>  (654) 
nan

>  <Peripheral>  (654) 
nan

>  <Num_H_Atoms_ProtBoundConf>  (654) 
nan

>  <Num_Resolved_Atoms>  (654) 
nan

>  <Num_Not_Resolved_Atoms>  (654) 
nan

$$$$
CHEMBL1421442
     RDKit          3D

  0  0  0  0  0  0  0  0  0  0999 V3000
M  V30 BEGIN CTAB
M  V30 COUNTS 55 59 0 0 0
M  V30 BEGIN ATOM
M  V30 1 O 0.517399 -5.126446 0.951397 0
M  V30 2 C -0.581862 -4.731516 0.480909 0
M  V30 3 N -0.817969 -3.363733 0.165932 0
M  V30 4 C 0.058534 -2.242069 0.302063 0
M  V30 5 C 0.133675 -1.479895 1.452110 0
M  V30 6 C 1.002698 -0.409422 1.521332 0
M  V30 7 C 1.825658 -0.042414 0.481871 0
M  V30 8 N 2.707936 1.057722 0.591712 0
M  V30 9 C 2.905459 1.890708 1.728121 0
M  V30 10 C 2.671737 3.357963 1.435914 0
M  V30 11 N 2.357855 3.551601 0.018018 0
M  V30 12 C 1.185719 4.174786 -0.489462 0
M  V30 13 O 1.113217 4.238232 -1.753028 0
M  V30 14 C 0.245368 4.646152 0.520897 0
M  V30 15 C 0.445198 5.952185 0.943187 0
M  V30 16 C -0.424726 6.432611 1.897310 0
M  V30 17 C -1.460518 5.690623 2.438063 0
M  V30 18 C -1.589254 4.388962 1.957542 0
M  V30 19 C -0.752504 3.825270 0.993810 0
M  V30 20 C 3.450925 2.998874 -0.743007 0
M  V30 21 C 3.590649 1.551465 -0.438767 0
M  V30 22 C 1.721773 -0.823428 -0.643473 0
M  V30 23 C 0.874551 -1.903673 -0.773447 0
M  V30 24 C -1.646950 -5.706188 0.251571 0
M  V30 25 C -1.483284 -7.062317 0.528177 0
M  V30 26 C -2.725466 -7.599919 0.164545 0
M  V30 27 C -3.201277 -8.909566 0.202165 0
M  V30 28 C -4.489602 -9.165717 -0.223333 0
M  V30 29 C -5.334730 -8.164685 -0.689961 0
M  V30 30 C -4.837738 -6.874104 -0.717022 0
M  V30 31 C -3.553861 -6.588532 -0.297644 0
M  V30 32 O -2.847672 -5.463081 -0.222202 0
M  V30 33 H -1.762781 -3.075654 -0.230632 0
M  V30 34 H -0.514057 -1.781380 2.252606 0
M  V30 35 H 0.963324 0.094398 2.464565 0
M  V30 36 H 3.946331 1.717413 2.103884 0
M  V30 37 H 2.237835 1.637111 2.568685 0
M  V30 38 H 3.608299 3.905096 1.631905 0
M  V30 39 H 1.834014 3.784897 2.003129 0
M  V30 40 H 1.245645 6.579291 0.549851 0
M  V30 41 H -0.343027 7.439347 2.283416 0
M  V30 42 H -2.149749 6.051360 3.184547 0
M  V30 43 H -2.408685 3.803513 2.385343 0
M  V30 44 H -0.887623 2.813088 0.650230 0
M  V30 45 H 3.218582 3.114179 -1.837880 0
M  V30 46 H 4.403077 3.538288 -0.516676 0
M  V30 47 H 4.635286 1.368273 -0.050380 0
M  V30 48 H 3.561513 0.921954 -1.374211 0
M  V30 49 H 2.307994 -0.638454 -1.517241 0
M  V30 50 H 0.811787 -2.502683 -1.670990 0
M  V30 51 H -0.624271 -7.588704 0.923916 0
M  V30 52 H -2.596255 -9.733136 0.553784 0
M  V30 53 H -4.852765 -10.166062 -0.194558 0
M  V30 54 H -6.343066 -8.326593 -1.027805 0
M  V30 55 H -5.407265 -5.996930 -1.063540 0
M  V30 END ATOM
M  V30 BEGIN BOND
M  V30 1 2 1 2
M  V30 2 1 2 3
M  V30 3 1 3 4
M  V30 4 2 4 5
M  V30 5 1 5 6
M  V30 6 2 6 7
M  V30 7 1 7 8
M  V30 8 1 8 9
M  V30 9 1 9 10
M  V30 10 1 10 11
M  V30 11 1 11 12
M  V30 12 2 12 13
M  V30 13 1 12 14
M  V30 14 2 14 15
M  V30 15 1 15 16
M  V30 16 2 16 17
M  V30 17 1 17 18
M  V30 18 2 18 19
M  V30 19 1 11 20
M  V30 20 1 20 21
M  V30 21 1 7 22
M  V30 22 2 22 23
M  V30 23 1 2 24
M  V30 24 2 24 25
M  V30 25 1 25 26
M  V30 26 2 26 27
M  V30 27 1 27 28
M  V30 28 2 28 29
M  V30 29 1 29 30
M  V30 30 2 30 31
M  V30 31 1 31 32
M  V30 32 1 23 4
M  V30 33 1 32 24
M  V30 34 1 21 8
M  V30 35 1 31 26
M  V30 36 1 19 14
M  V30 37 1 3 33
M  V30 38 1 5 34
M  V30 39 1 6 35
M  V30 40 1 9 36
M  V30 41 1 9 37
M  V30 42 1 10 38
M  V30 43 1 10 39
M  V30 44 1 15 40
M  V30 45 1 16 41
M  V30 46 1 17 42
M  V30 47 1 18 43
M  V30 48 1 19 44
M  V30 49 1 20 45
M  V30 50 1 20 46
M  V30 51 1 21 47
M  V30 52 1 21 48
M  V30 53 1 22 49
M  V30 54 1 23 50
M  V30 55 1 25 51
M  V30 56 1 27 52
M  V30 57 1 28 53
M  V30 58 1 29 54
M  V30 59 1 30 55
M  V30 END BOND
M  V30 END CTAB
M  END
>  <Dataset>  (655) 
ChEMBL_Kinases

>  <Ligand_Instance>  (655) 
nan

>  <PDB_ID>  (655) 
nan

>  <Standardized_SMILES>  (655) 
O=C(Nc1ccc(N2CCN(C(=O)c3ccccc3)CC2)cc1)c1cc2ccccc2o1

>  <Name>  (655) 
nan

>  <Pocket>  (655) 
nan

>  <ATP_Site>  (655) 
nan

>  <Peripheral>  (655) 
nan

>  <Num_H_Atoms_ProtBoundConf>  (655) 
nan

>  <Num_Resolved_Atoms>  (655) 
nan

>  <Num_Not_Resolved_Atoms>  (655) 
nan

$$$$
CHEMBL1421453
     RDKit          3D

  0  0  0  0  0  0  0  0  0  0999 V3000
M  V30 BEGIN CTAB
M  V30 COUNTS 36 39 0 0 0
M  V30 BEGIN ATOM
M  V30 1 O 2.916887 -1.513040 1.844444 0
M  V30 2 C 2.109761 -1.070322 0.990393 0
M  V30 3 N 1.863989 -2.136255 0.114085 0
M  V30 4 C 2.425918 -3.464094 0.192096 0
M  V30 5 N 2.328967 -4.434291 -0.434500 0
M  V30 6 C 2.936630 -5.577652 -0.200768 0
M  V30 7 C 3.806014 -5.648759 0.933627 0
M  V30 8 S 3.628595 -3.916919 1.580154 0
M  V30 9 C 1.588081 0.269224 0.975669 0
M  V30 10 C 2.203564 1.052138 1.953659 0
M  V30 11 C 1.652665 2.304311 1.869910 0
M  V30 12 S 1.618607 3.953201 2.500671 0
M  V30 13 C 0.278162 4.568061 1.311652 0
M  V30 14 C -0.034612 3.412379 0.508459 0
M  V30 15 C 0.654882 2.267402 0.784648 0
M  V30 16 N 0.697835 1.007457 0.320794 0
M  V30 17 C -0.114096 0.461181 -0.764852 0
M  V30 18 C -1.403509 -0.078886 -0.268170 0
M  V30 19 C -2.524494 0.765138 -0.200393 0
M  V30 20 C -3.797840 0.461337 0.228306 0
M  V30 21 C -3.988441 -0.839150 0.642084 0
M  V30 22 F -5.198876 -1.243392 1.081728 0
M  V30 23 C -2.953032 -1.747549 0.615389 0
M  V30 24 C -1.717483 -1.344615 0.169318 0
M  V30 25 H 1.235049 -2.026876 -0.691047 0
M  V30 26 H 2.716156 -6.390414 -0.913210 0
M  V30 27 H 4.306316 -6.685374 1.077362 0
M  V30 28 H 2.970934 0.960148 2.739497 0
M  V30 29 H -0.231143 5.558301 1.165831 0
M  V30 30 H -0.789001 3.572505 -0.236385 0
M  V30 31 H -0.428934 1.359366 -1.415623 0
M  V30 32 H 0.421871 -0.151393 -1.476595 0
M  V30 33 H -2.386016 1.808779 -0.528630 0
M  V30 34 H -4.570678 1.205987 0.229700 0
M  V30 35 H -3.081909 -2.772106 0.935621 0
M  V30 36 H -0.927152 -2.072699 0.160062 0
M  V30 END ATOM
M  V30 BEGIN BOND
M  V30 1 2 1 2
M  V30 2 1 2 3
M  V30 3 1 3 4
M  V30 4 2 4 5
M  V30 5 1 5 6
M  V30 6 2 6 7
M  V30 7 1 7 8
M  V30 8 1 2 9
M  V30 9 2 9 10
M  V30 10 1 10 11
M  V30 11 1 11 12
M  V30 12 1 12 13
M  V30 13 2 13 14
M  V30 14 1 14 15
M  V30 15 1 15 16
M  V30 16 1 16 17
M  V30 17 1 17 18
M  V30 18 2 18 19
M  V30 19 1 19 20
M  V30 20 2 20 21
M  V30 21 1 21 22
M  V30 22 1 21 23
M  V30 23 2 23 24
M  V30 24 1 8 4
M  V30 25 1 16 9
M  V30 26 1 24 18
M  V30 27 2 15 11
M  V30 28 1 3 25
M  V30 29 1 6 26
M  V30 30 1 7 27
M  V30 31 1 10 28
M  V30 32 1 13 29
M  V30 33 1 14 30
M  V30 34 1 17 31
M  V30 35 1 17 32
M  V30 36 1 19 33
M  V30 37 1 20 34
M  V30 38 1 23 35
M  V30 39 1 24 36
M  V30 END BOND
M  V30 END CTAB
M  END
>  <Dataset>  (656) 
ChEMBL_Kinases

>  <Ligand_Instance>  (656) 
nan

>  <PDB_ID>  (656) 
nan

>  <Standardized_SMILES>  (656) 
O=C(Nc1nccs1)c1cc2sccc2n1Cc1ccc(F)cc1

>  <Name>  (656) 
nan

>  <Pocket>  (656) 
nan

>  <ATP_Site>  (656) 
nan

>  <Peripheral>  (656) 
nan

>  <Num_H_Atoms_ProtBoundConf>  (656) 
nan

>  <Num_Resolved_Atoms>  (656) 
nan

>  <Num_Not_Resolved_Atoms>  (656) 
nan

$$$$
CHEMBL1421461
     RDKit          3D

  0  0  0  0  0  0  0  0  0  0999 V3000
M  V30 BEGIN CTAB
M  V30 COUNTS 37 38 0 0 0
M  V30 BEGIN ATOM
M  V30 1 C -0.590378 -4.133215 5.143191 0
M  V30 2 C -0.660237 -4.415793 3.830548 0
M  V30 3 C -1.563488 -3.624805 2.959255 0
M  V30 4 N -0.832558 -2.939934 1.892125 0
M  V30 5 C -0.336369 -1.712996 2.008390 0
M  V30 6 N -0.488039 -0.969357 3.212065 0
M  V30 7 C 0.336043 -1.180744 0.915283 0
M  V30 8 C 0.953010 0.079997 0.759684 0
M  V30 9 O 0.868255 0.835789 1.786593 0
M  V30 10 N 1.626138 0.515132 -0.428644 0
M  V30 11 C 1.952612 0.010297 -1.773426 0
M  V30 12 C 1.190873 0.806903 -2.759664 0
M  V30 13 N 0.874123 2.144341 -2.450629 0
M  V30 14 C -0.568939 2.240807 -2.301598 0
M  V30 15 C 1.477029 2.734411 -1.324682 0
M  V30 16 C 2.182540 1.877973 -0.351116 0
M  V30 17 S 0.276168 -2.463484 -0.353360 0
M  V30 18 C -0.679720 -3.666098 0.707060 0
M  V30 19 S -1.229273 -5.214063 0.369553 0
M  V30 20 H -1.266940 -3.294346 5.382517 0
M  V30 21 H -0.875872 -3.562649 6.026850 0
M  V30 22 H 0.026539 -5.052399 4.365677 0
M  V30 23 H -2.091301 -2.845199 3.586959 0
M  V30 24 H -2.346754 -4.274170 2.560140 0
M  V30 25 H 0.314774 -1.304087 3.792297 0
M  V30 26 H -1.235484 -0.270657 3.418871 0
M  V30 27 H 3.065332 0.121514 -1.879663 0
M  V30 28 H 1.645050 -1.038636 -1.849114 0
M  V30 29 H 0.285013 0.225047 -3.088492 0
M  V30 30 H 1.819965 0.831138 -3.699312 0
M  V30 31 H -0.806730 1.678609 -1.373999 0
M  V30 32 H -0.922824 3.274468 -2.132928 0
M  V30 33 H -1.102920 1.701948 -3.112330 0
M  V30 34 H 0.751023 3.403159 -0.786155 0
M  V30 35 H 2.243465 3.469952 -1.715227 0
M  V30 36 H 3.276992 1.764234 -0.558194 0
M  V30 37 H 2.030528 2.290488 0.664445 0
M  V30 END ATOM
M  V30 BEGIN BOND
M  V30 1 2 1 2
M  V30 2 1 2 3
M  V30 3 1 3 4
M  V30 4 1 4 5
M  V30 5 1 5 6
M  V30 6 2 5 7
M  V30 7 1 7 8
M  V30 8 2 8 9
M  V30 9 1 8 10
M  V30 10 1 10 11
M  V30 11 1 11 12
M  V30 12 1 12 13
M  V30 13 1 13 14
M  V30 14 1 13 15
M  V30 15 1 15 16
M  V30 16 1 7 17
M  V30 17 1 17 18
M  V30 18 2 18 19
M  V30 19 1 18 4
M  V30 20 1 16 10
M  V30 21 1 1 20
M  V30 22 1 1 21
M  V30 23 1 2 22
M  V30 24 1 3 23
M  V30 25 1 3 24
M  V30 26 1 6 25
M  V30 27 1 6 26
M  V30 28 1 11 27
M  V30 29 1 11 28
M  V30 30 1 12 29
M  V30 31 1 12 30
M  V30 32 1 14 31
M  V30 33 1 14 32
M  V30 34 1 14 33
M  V30 35 1 15 34
M  V30 36 1 15 35
M  V30 37 1 16 36
M  V30 38 1 16 37
M  V30 END BOND
M  V30 END CTAB
M  END
>  <Dataset>  (657) 
ChEMBL_Kinases

>  <Ligand_Instance>  (657) 
nan

>  <PDB_ID>  (657) 
nan

>  <Standardized_SMILES>  (657) 
C=CCn1c(N)c(C(=O)N2CCN(C)CC2)sc1=S

>  <Name>  (657) 
nan

>  <Pocket>  (657) 
nan

>  <ATP_Site>  (657) 
nan

>  <Peripheral>  (657) 
nan

>  <Num_H_Atoms_ProtBoundConf>  (657) 
nan

>  <Num_Resolved_Atoms>  (657) 
nan

>  <Num_Not_Resolved_Atoms>  (657) 
nan

$$$$
CHEMBL1421687
     RDKit          3D

  0  0  0  0  0  0  0  0  0  0999 V3000
M  V30 BEGIN CTAB
M  V30 COUNTS 52 55 0 0 0
M  V30 BEGIN ATOM
M  V30 1 O 0.571496 2.237821 -0.023644 0
M  V30 2 C 0.739242 1.052579 -0.359947 0
M  V30 3 N 1.958272 0.619193 -0.942177 0
M  V30 4 C 3.006440 1.565306 -1.142637 0
M  V30 5 C 3.486253 2.215650 0.128171 0
M  V30 6 C 4.026235 1.163863 1.107525 0
M  V30 7 N 4.485224 1.820033 2.332280 0
M  V30 8 C 3.720066 2.103870 3.528791 0
M  V30 9 C 4.748829 2.314451 4.600924 0
M  V30 10 C 5.989200 2.858030 3.917801 0
M  V30 11 C 5.823920 2.307133 2.550782 0
M  V30 12 O 6.800918 2.317300 1.767068 0
M  V30 13 C -0.374337 0.139881 -0.125892 0
M  V30 14 C -1.525694 0.640168 0.446695 0
M  V30 15 C -2.624501 -0.191246 0.693583 0
M  V30 16 C -2.581977 -1.537360 0.368551 0
M  V30 17 C -3.630776 -2.410136 0.586252 0
M  V30 18 O -4.691987 -1.956054 1.112451 0
M  V30 19 N -3.527060 -3.727746 0.243545 0
M  V30 20 C -4.685485 -4.546922 0.518364 0
M  V30 21 C -5.647414 -4.577344 -0.636745 0
M  V30 22 C -5.649934 -5.475284 -1.668680 0
M  V30 23 C -6.708180 -5.097597 -2.468242 0
M  V30 24 C -7.310008 -3.997724 -1.908688 0
M  V30 25 O -6.626517 -3.742852 -0.820678 0
M  V30 26 C -2.380665 -4.160449 -0.311628 0
M  V30 27 S -2.278973 -5.738246 -0.712267 0
M  V30 28 N -1.326632 -3.357417 -0.547350 0
M  V30 29 C -1.427479 -2.050688 -0.208293 0
M  V30 30 C -0.364193 -1.203687 -0.437458 0
M  V30 31 H 2.103535 -0.374546 -1.226040 0
M  V30 32 H 2.620755 2.363363 -1.807966 0
M  V30 33 H 3.890734 1.149406 -1.650103 0
M  V30 34 H 2.735202 2.856006 0.624110 0
M  V30 35 H 4.355542 2.863081 -0.110083 0
M  V30 36 H 4.914452 0.657375 0.677544 0
M  V30 37 H 3.279040 0.373672 1.317965 0
M  V30 38 H 3.167804 3.074032 3.389564 0
M  V30 39 H 3.026152 1.312658 3.807046 0
M  V30 40 H 5.072317 1.358348 5.086241 0
M  V30 41 H 4.390781 3.027644 5.385690 0
M  V30 42 H 6.915323 2.485357 4.374250 0
M  V30 43 H 5.938370 3.972244 3.873362 0
M  V30 44 H -1.675448 1.655541 0.738760 0
M  V30 45 H -3.538055 0.178092 1.141551 0
M  V30 46 H -4.410595 -5.580235 0.812256 0
M  V30 47 H -5.251539 -4.140622 1.379488 0
M  V30 48 H -4.991417 -6.306175 -1.853536 0
M  V30 49 H -7.051453 -5.553457 -3.390433 0
M  V30 50 H -8.174879 -3.466035 -2.306615 0
M  V30 51 H -0.472932 -3.767742 -0.980853 0
M  V30 52 H 0.526368 -1.619078 -0.886970 0
M  V30 END ATOM
M  V30 BEGIN BOND
M  V30 1 2 1 2
M  V30 2 1 2 3
M  V30 3 1 3 4
M  V30 4 1 4 5
M  V30 5 1 5 6
M  V30 6 1 6 7
M  V30 7 1 7 8
M  V30 8 1 8 9
M  V30 9 1 9 10
M  V30 10 1 10 11
M  V30 11 2 11 12
M  V30 12 1 2 13
M  V30 13 2 13 14
M  V30 14 1 14 15
M  V30 15 2 15 16
M  V30 16 1 16 17
M  V30 17 2 17 18
M  V30 18 1 17 19
M  V30 19 1 19 20
M  V30 20 1 20 21
M  V30 21 2 21 22
M  V30 22 1 22 23
M  V30 23 2 23 24
M  V30 24 1 24 25
M  V30 25 1 19 26
M  V30 26 2 26 27
M  V30 27 1 26 28
M  V30 28 1 28 29
M  V30 29 2 29 30
M  V30 30 1 11 7
M  V30 31 1 30 13
M  V30 32 1 29 16
M  V30 33 1 25 21
M  V30 34 1 3 31
M  V30 35 1 4 32
M  V30 36 1 4 33
M  V30 37 1 5 34
M  V30 38 1 5 35
M  V30 39 1 6 36
M  V30 40 1 6 37
M  V30 41 1 8 38
M  V30 42 1 8 39
M  V30 43 1 9 40
M  V30 44 1 9 41
M  V30 45 1 10 42
M  V30 46 1 10 43
M  V30 47 1 14 44
M  V30 48 1 15 45
M  V30 49 1 20 46
M  V30 50 1 20 47
M  V30 51 1 22 48
M  V30 52 1 23 49
M  V30 53 1 24 50
M  V30 54 1 28 51
M  V30 55 1 30 52
M  V30 END BOND
M  V30 END CTAB
M  END
>  <Dataset>  (658) 
ChEMBL_Kinases

>  <Ligand_Instance>  (658) 
nan

>  <PDB_ID>  (658) 
nan

>  <Standardized_SMILES>  (658) 
O=C(NCCCN1CCCC1=O)c1ccc2c(=O)n(Cc3ccco3)c(=S)[nH]c2c1

>  <Name>  (658) 
nan

>  <Pocket>  (658) 
nan

>  <ATP_Site>  (658) 
nan

>  <Peripheral>  (658) 
nan

>  <Num_H_Atoms_ProtBoundConf>  (658) 
nan

>  <Num_Resolved_Atoms>  (658) 
nan

>  <Num_Not_Resolved_Atoms>  (658) 
nan

$$$$
CHEMBL1421754
     RDKit          3D

  0  0  0  0  0  0  0  0  0  0999 V3000
M  V30 BEGIN CTAB
M  V30 COUNTS 38 41 0 0 0
M  V30 BEGIN ATOM
M  V30 1 C 1.015042 -4.382629 1.249260 0
M  V30 2 N 0.794501 -2.943978 1.378740 0
M  V30 3 C 1.773922 -2.031536 1.519107 0
M  V30 4 N 3.176595 -2.269848 1.568740 0
M  V30 5 C 1.254620 -0.756406 1.617021 0
M  V30 6 S 1.977547 0.810085 1.808123 0
M  V30 7 O 1.103069 1.721117 2.622045 0
M  V30 8 O 3.322220 0.691319 2.496985 0
M  V30 9 C 2.300874 1.486436 0.224192 0
M  V30 10 C 3.474764 1.313510 -0.477969 0
M  V30 11 C 3.576651 1.918017 -1.728809 0
M  V30 12 C 2.533429 2.657311 -2.229589 0
M  V30 13 Br 2.751793 3.446147 -3.937102 0
M  V30 14 C 1.348045 2.838949 -1.534032 0
M  V30 15 C 1.248218 2.234455 -0.285039 0
M  V30 16 C -0.116920 -0.899156 1.531664 0
M  V30 17 N -1.171700 -0.058517 1.559142 0
M  V30 18 C -2.446224 -0.476706 1.451846 0
M  V30 19 C -3.461985 0.469197 1.491670 0
M  V30 20 C -4.776177 0.061287 1.383325 0
M  V30 21 C -5.043632 -1.302863 1.235752 0
M  V30 22 C -3.994495 -2.194275 1.203001 0
M  V30 23 C -2.675316 -1.828894 1.307439 0
M  V30 24 N -1.635160 -2.681586 1.278019 0
M  V30 25 C -0.359336 -2.251448 1.386552 0
M  V30 26 H 1.580183 -4.789198 2.112990 0
M  V30 27 H 1.538306 -4.636485 0.291309 0
M  V30 28 H 0.040446 -4.908805 1.221197 0
M  V30 29 H 3.993886 -2.147458 0.898959 0
M  V30 30 H 3.933985 -2.616006 2.177184 0
M  V30 31 H 4.218964 0.720697 0.004954 0
M  V30 32 H 4.497716 1.765956 -2.248285 0
M  V30 33 H 0.561719 3.423922 -1.964759 0
M  V30 34 H 0.310264 2.402763 0.218116 0
M  V30 35 H -3.248992 1.523161 1.606014 0
M  V30 36 H -5.607620 0.754763 1.408009 0
M  V30 37 H -6.085751 -1.641627 1.148335 0
M  V30 38 H -4.228732 -3.242807 1.088071 0
M  V30 END ATOM
M  V30 BEGIN BOND
M  V30 1 1 1 2
M  V30 2 1 2 3
M  V30 3 1 3 4
M  V30 4 2 3 5
M  V30 5 1 5 6
M  V30 6 2 6 7
M  V30 7 2 6 8
M  V30 8 1 6 9
M  V30 9 2 9 10
M  V30 10 1 10 11
M  V30 11 2 11 12
M  V30 12 1 12 13
M  V30 13 1 12 14
M  V30 14 2 14 15
M  V30 15 1 5 16
M  V30 16 2 16 17
M  V30 17 1 17 18
M  V30 18 2 18 19
M  V30 19 1 19 20
M  V30 20 2 20 21
M  V30 21 1 21 22
M  V30 22 2 22 23
M  V30 23 1 23 24
M  V30 24 2 24 25
M  V30 25 1 25 2
M  V30 26 1 15 9
M  V30 27 1 25 16
M  V30 28 1 23 18
M  V30 29 1 1 26
M  V30 30 1 1 27
M  V30 31 1 1 28
M  V30 32 1 4 29
M  V30 33 1 4 30
M  V30 34 1 10 31
M  V30 35 1 11 32
M  V30 36 1 14 33
M  V30 37 1 15 34
M  V30 38 1 19 35
M  V30 39 1 20 36
M  V30 40 1 21 37
M  V30 41 1 22 38
M  V30 END BOND
M  V30 END CTAB
M  END
>  <Dataset>  (659) 
ChEMBL_Kinases

>  <Ligand_Instance>  (659) 
nan

>  <PDB_ID>  (659) 
nan

>  <Standardized_SMILES>  (659) 
Cn1c(N)c(S(=O)(=O)c2ccc(Br)cc2)c2nc3ccccc3nc21

>  <Name>  (659) 
nan

>  <Pocket>  (659) 
nan

>  <ATP_Site>  (659) 
nan

>  <Peripheral>  (659) 
nan

>  <Num_H_Atoms_ProtBoundConf>  (659) 
nan

>  <Num_Resolved_Atoms>  (659) 
nan

>  <Num_Not_Resolved_Atoms>  (659) 
nan

$$$$
CHEMBL1421779
     RDKit          3D

  0  0  0  0  0  0  0  0  0  0999 V3000
M  V30 BEGIN CTAB
M  V30 COUNTS 44 47 0 0 0
M  V30 BEGIN ATOM
M  V30 1 C -3.075832 -2.045641 -0.206516 0
M  V30 2 C -1.788097 -2.028389 0.611238 0
M  V30 3 C -1.413559 -3.497145 0.749094 0
M  V30 4 C -0.701321 -1.356402 -0.160774 0
M  V30 5 C -0.402782 0.054811 0.168740 0
M  V30 6 C -1.463363 0.658525 1.118633 0
M  V30 7 C -1.246497 -0.242324 2.286714 0
M  V30 8 C -1.684482 0.342836 3.592654 0
M  V30 9 C 0.217668 -0.551088 2.231711 0
M  V30 10 N 0.755935 0.116161 1.029648 0
M  V30 11 C 2.109617 0.596064 1.097830 0
M  V30 12 N 2.604359 1.032722 2.270615 0
M  V30 13 C 3.837362 1.545390 2.389270 0
M  V30 14 N 4.654769 1.650781 1.327833 0
M  V30 15 C 4.250149 1.239651 0.112786 0
M  V30 16 C 5.055365 1.312862 -1.004840 0
M  V30 17 C 4.641314 0.874929 -2.246619 0
M  V30 18 C 3.349788 0.341683 -2.338742 0
M  V30 19 Br 2.758339 -0.270312 -4.045107 0
M  V30 20 C 2.581592 0.288954 -1.196994 0
M  V30 21 C 2.980359 0.722602 0.045005 0
M  V30 22 C -1.998741 -1.522404 2.011134 0
M  V30 23 H -2.754817 -2.110297 -1.261664 0
M  V30 24 H -3.650779 -2.984469 -0.018252 0
M  V30 25 H -3.755684 -1.225877 0.008722 0
M  V30 26 H -2.306346 -4.155467 0.698222 0
M  V30 27 H -0.750943 -3.811543 -0.103797 0
M  V30 28 H -0.869456 -3.707452 1.695366 0
M  V30 29 H 0.254956 -1.952318 -0.084678 0
M  V30 30 H -0.942772 -1.406746 -1.251534 0
M  V30 31 H -0.343758 0.731960 -0.715201 0
M  V30 32 H -1.084065 1.681287 1.366799 0
M  V30 33 H -2.456804 0.675525 0.685192 0
M  V30 34 H -2.209071 -0.409200 4.220772 0
M  V30 35 H -0.835213 0.720895 4.206080 0
M  V30 36 H -2.403843 1.179618 3.449835 0
M  V30 37 H 0.416231 -1.641678 2.015918 0
M  V30 38 H 0.759721 -0.316967 3.144485 0
M  V30 39 H 4.090974 1.853851 3.400780 0
M  V30 40 H 6.053901 1.731430 -0.903331 0
M  V30 41 H 5.335026 0.968840 -3.071235 0
M  V30 42 H 1.620847 -0.153784 -1.381395 0
M  V30 43 H -3.089927 -1.358697 2.131170 0
M  V30 44 H -1.702236 -2.243998 2.802021 0
M  V30 END ATOM
M  V30 BEGIN BOND
M  V30 1 1 1 2
M  V30 2 1 2 3
M  V30 3 1 2 4
M  V30 4 1 4 5
M  V30 5 1 5 6
M  V30 6 1 6 7
M  V30 7 1 7 8
M  V30 8 1 7 9
M  V30 9 1 9 10
M  V30 10 1 10 11
M  V30 11 2 11 12
M  V30 12 1 12 13
M  V30 13 2 13 14
M  V30 14 1 14 15
M  V30 15 2 15 16
M  V30 16 1 16 17
M  V30 17 2 17 18
M  V30 18 1 18 19
M  V30 19 1 18 20
M  V30 20 2 20 21
M  V30 21 1 7 22
M  V30 22 1 22 2
M  V30 23 1 10 5
M  V30 24 1 21 11
M  V30 25 1 21 15
M  V30 26 1 1 23
M  V30 27 1 1 24
M  V30 28 1 1 25
M  V30 29 1 3 26
M  V30 30 1 3 27
M  V30 31 1 3 28
M  V30 32 1 4 29
M  V30 33 1 4 30
M  V30 34 1 5 31
M  V30 35 1 6 32
M  V30 36 1 6 33
M  V30 37 1 8 34
M  V30 38 1 8 35
M  V30 39 1 8 36
M  V30 40 1 9 37
M  V30 41 1 9 38
M  V30 42 1 13 39
M  V30 43 1 16 40
M  V30 44 1 17 41
M  V30 45 1 20 42
M  V30 46 1 22 43
M  V30 47 1 22 44
M  V30 END BOND
M  V30 END CTAB
M  END
>  <Dataset>  (660) 
ChEMBL_Kinases

>  <Ligand_Instance>  (660) 
nan

>  <PDB_ID>  (660) 
nan

>  <Standardized_SMILES>  (660) 
CC1(C)CC2CC(C)(CN2c2ncnc3ccc(Br)cc23)C1

>  <Name>  (660) 
nan

>  <Pocket>  (660) 
nan

>  <ATP_Site>  (660) 
nan

>  <Peripheral>  (660) 
nan

>  <Num_H_Atoms_ProtBoundConf>  (660) 
nan

>  <Num_Resolved_Atoms>  (660) 
nan

>  <Num_Not_Resolved_Atoms>  (660) 
nan

$$$$
CHEMBL1422513
     RDKit          3D

  0  0  0  0  0  0  0  0  0  0999 V3000
M  V30 BEGIN CTAB
M  V30 COUNTS 49 50 0 0 0
M  V30 BEGIN ATOM
M  V30 1 C -0.802040 -6.721141 -0.388003 0
M  V30 2 C -0.949448 -5.304521 0.170641 0
M  V30 3 C -1.536093 -5.352296 1.566281 0
M  V30 4 N 0.338120 -4.618530 0.180997 0
M  V30 5 C 0.534647 -3.271964 0.590815 0
M  V30 6 C -0.483997 -2.451145 1.017103 0
M  V30 7 C -0.266736 -1.161300 1.399710 0
M  V30 8 C 1.012581 -0.627744 1.369762 0
M  V30 9 C 1.131963 0.781851 1.808241 0
M  V30 10 C 2.499114 1.363313 1.660593 0
M  V30 11 C 3.051599 1.401922 0.315149 0
M  V30 12 N 4.354129 1.970086 0.380685 0
M  V30 13 O 2.780724 1.111327 -0.867668 0
M  V30 14 N 0.093251 1.616003 1.230997 0
M  V30 15 C -1.002413 2.320692 1.803034 0
M  V30 16 O -1.070205 2.185235 3.049338 0
M  V30 17 C -1.878360 3.079648 0.936039 0
M  V30 18 C -1.790995 3.226625 -0.439190 0
M  V30 19 C -2.722487 3.992422 -1.107086 0
M  V30 20 C -3.765197 4.641574 -0.486532 0
M  V30 21 Br -5.030219 5.688986 -1.438826 0
M  V30 22 C -3.838329 4.485698 0.881552 0
M  V30 23 C -2.923746 3.723083 1.607467 0
M  V30 24 C 2.045826 -1.413292 0.952370 0
M  V30 25 C 1.806879 -2.714984 0.569636 0
M  V30 26 N 2.956399 -3.436541 0.155966 0 CHG=1 VAL=4
M  V30 27 O 3.953410 -2.895448 -0.332421 0
M  V30 28 O 3.426249 -4.713872 0.095925 0 CHG=-1 VAL=1
M  V30 29 H -1.649248 -7.333957 -0.068658 0
M  V30 30 H 0.175796 -7.097595 0.013579 0
M  V30 31 H -0.702157 -6.717472 -1.475463 0
M  V30 32 H -1.658429 -4.770262 -0.481163 0
M  V30 33 H -2.548702 -4.949866 1.545495 0
M  V30 34 H -1.576361 -6.422346 1.869621 0
M  V30 35 H -0.945543 -4.765618 2.302163 0
M  V30 36 H 1.160827 -5.169807 -0.137586 0
M  V30 37 H -1.502570 -2.823280 1.053656 0
M  V30 38 H -1.122321 -0.556468 1.730909 0
M  V30 39 H 0.914377 0.769367 2.897654 0
M  V30 40 H 2.441471 2.409289 2.041233 0
M  V30 41 H 3.154800 0.833963 2.378436 0
M  V30 42 H 5.165014 1.318398 0.347908 0
M  V30 43 H 5.378065 2.160102 0.413414 0
M  V30 44 H 0.324975 1.600232 0.213036 0
M  V30 45 H -0.972317 2.712857 -0.897771 0
M  V30 46 H -2.622835 4.084976 -2.179698 0
M  V30 47 H -4.654225 4.991716 1.382855 0
M  V30 48 H -3.106024 3.690946 2.674156 0
M  V30 49 H 3.013677 -0.978315 0.939252 0
M  V30 END ATOM
M  V30 BEGIN BOND
M  V30 1 1 1 2
M  V30 2 1 2 3
M  V30 3 1 2 4
M  V30 4 1 4 5
M  V30 5 2 5 6
M  V30 6 1 6 7
M  V30 7 2 7 8
M  V30 8 1 8 9
M  V30 9 1 9 10
M  V30 10 1 10 11
M  V30 11 1 11 12
M  V30 12 2 11 13
M  V30 13 1 9 14
M  V30 14 1 14 15
M  V30 15 2 15 16
M  V30 16 1 15 17
M  V30 17 2 17 18
M  V30 18 1 18 19
M  V30 19 2 19 20
M  V30 20 1 20 21
M  V30 21 1 20 22
M  V30 22 2 22 23
M  V30 23 1 8 24
M  V30 24 2 24 25
M  V30 25 1 25 26
M  V30 26 2 26 27
M  V30 27 1 26 28
M  V30 28 1 25 5
M  V30 29 1 23 17
M  V30 30 1 1 29
M  V30 31 1 1 30
M  V30 32 1 1 31
M  V30 33 1 2 32
M  V30 34 1 3 33
M  V30 35 1 3 34
M  V30 36 1 3 35
M  V30 37 1 4 36
M  V30 38 1 6 37
M  V30 39 1 7 38
M  V30 40 1 9 39
M  V30 41 1 10 40
M  V30 42 1 10 41
M  V30 43 1 12 42
M  V30 44 1 12 43
M  V30 45 1 14 44
M  V30 46 1 18 45
M  V30 47 1 19 46
M  V30 48 1 22 47
M  V30 49 1 23 48
M  V30 50 1 24 49
M  V30 END BOND
M  V30 END CTAB
M  END
>  <Dataset>  (661) 
ChEMBL_Kinases

>  <Ligand_Instance>  (661) 
nan

>  <PDB_ID>  (661) 
nan

>  <Standardized_SMILES>  (661) 
CC(C)Nc1ccc(C(CC(N)=O)NC(=O)c2ccc(Br)cc2)cc1[N+](=O)[O-]

>  <Name>  (661) 
nan

>  <Pocket>  (661) 
nan

>  <ATP_Site>  (661) 
nan

>  <Peripheral>  (661) 
nan

>  <Num_H_Atoms_ProtBoundConf>  (661) 
nan

>  <Num_Resolved_Atoms>  (661) 
nan

>  <Num_Not_Resolved_Atoms>  (661) 
nan

$$$$
CHEMBL1421962
     RDKit          3D

  0  0  0  0  0  0  0  0  0  0999 V3000
M  V30 BEGIN CTAB
M  V30 COUNTS 48 52 0 0 0
M  V30 BEGIN ATOM
M  V30 1 C -0.973316 -4.717009 0.079637 0
M  V30 2 C 0.283199 -4.197642 0.679727 0
M  V30 3 C 1.056631 -5.100134 1.338784 0
M  V30 4 C 2.231238 -4.642399 1.901811 0
M  V30 5 C 2.644382 -3.328096 1.823573 0
M  V30 6 C 1.791778 -2.490964 1.134892 0
M  V30 7 C 0.584000 -2.866733 0.533379 0
M  V30 8 N -0.226748 -1.922193 -0.149698 0
M  V30 9 O 0.456204 -1.435127 -1.218703 0
M  V30 10 C -0.212238 -0.326823 -1.671635 0
M  V30 11 C 0.624535 0.884118 -1.769789 0
M  V30 12 O 1.177350 1.251717 -2.836661 0
M  V30 13 N 0.685496 1.527361 -0.490981 0
M  V30 14 C 1.413492 2.674073 -0.115488 0
M  V30 15 C 1.368770 3.188460 1.166273 0
M  V30 16 C 2.071711 4.312165 1.569427 0
M  V30 17 C 2.870250 4.975831 0.659696 0
M  V30 18 F 3.577313 6.078458 1.003732 0
M  V30 19 C 2.944355 4.495145 -0.635003 0
M  V30 20 C 2.214912 3.366883 -0.968871 0
M  V30 21 C -0.163583 0.752762 0.360435 0
M  V30 22 O -0.117044 0.634800 1.611501 0
M  V30 23 C -1.150316 0.083942 -0.523935 0
M  V30 24 C -1.530464 -1.298285 -0.112125 0
M  V30 25 C -2.248167 -1.387041 1.153127 0
M  V30 26 C -2.850250 -0.182687 1.548486 0
M  V30 27 C -3.565431 -0.105291 2.727521 0
M  V30 28 C -3.713080 -1.202480 3.554533 0
M  V30 29 C -3.099702 -2.373760 3.122561 0
M  V30 30 N -2.405517 -2.443254 1.975162 0
M  V30 31 H -1.487726 -4.011738 -0.567858 0
M  V30 32 H -0.709581 -5.623978 -0.514626 0
M  V30 33 H -1.677934 -5.018020 0.903149 0
M  V30 34 H 0.799005 -6.139615 1.440162 0
M  V30 35 H 2.890292 -5.333361 2.444711 0
M  V30 36 H 3.547213 -2.931685 2.245525 0
M  V30 37 H 2.088442 -1.443944 1.054011 0
M  V30 38 H -0.793612 -0.513945 -2.592022 0
M  V30 39 H 0.783938 2.748918 1.933912 0
M  V30 40 H 2.038520 4.708836 2.554102 0
M  V30 41 H 3.577325 5.027255 -1.342950 0
M  V30 42 H 2.338957 3.074570 -1.992737 0
M  V30 43 H -1.960276 0.723422 -0.874375 0
M  V30 44 H -2.117213 -1.729137 -0.950660 0
M  V30 45 H -2.821733 0.771576 0.999643 0
M  V30 46 H -4.044244 0.806532 3.066015 0
M  V30 47 H -4.255575 -1.232034 4.495252 0
M  V30 48 H -3.191534 -3.256662 3.742105 0
M  V30 END ATOM
M  V30 BEGIN BOND
M  V30 1 1 1 2
M  V30 2 2 2 3
M  V30 3 1 3 4
M  V30 4 2 4 5
M  V30 5 1 5 6
M  V30 6 2 6 7
M  V30 7 1 7 8
M  V30 8 1 8 9
M  V30 9 1 9 10
M  V30 10 1 10 11
M  V30 11 2 11 12
M  V30 12 1 11 13
M  V30 13 1 13 14
M  V30 14 2 14 15
M  V30 15 1 15 16
M  V30 16 2 16 17
M  V30 17 1 17 18
M  V30 18 1 17 19
M  V30 19 2 19 20
M  V30 20 1 13 21
M  V30 21 2 21 22
M  V30 22 1 21 23
M  V30 23 1 23 24
M  V30 24 1 24 25
M  V30 25 2 25 26
M  V30 26 1 26 27
M  V30 27 2 27 28
M  V30 28 1 28 29
M  V30 29 2 29 30
M  V30 30 1 7 2
M  V30 31 1 24 8
M  V30 32 1 30 25
M  V30 33 1 23 10
M  V30 34 1 20 14
M  V30 35 1 1 31
M  V30 36 1 1 32
M  V30 37 1 1 33
M  V30 38 1 3 34
M  V30 39 1 4 35
M  V30 40 1 5 36
M  V30 41 1 6 37
M  V30 42 1 10 38
M  V30 43 1 15 39
M  V30 44 1 16 40
M  V30 45 1 19 41
M  V30 46 1 20 42
M  V30 47 1 23 43
M  V30 48 1 24 44
M  V30 49 1 26 45
M  V30 50 1 27 46
M  V30 51 1 28 47
M  V30 52 1 29 48
M  V30 END BOND
M  V30 END CTAB
M  END
>  <Dataset>  (662) 
ChEMBL_Kinases

>  <Ligand_Instance>  (662) 
nan

>  <PDB_ID>  (662) 
nan

>  <Standardized_SMILES>  (662) 
Cc1ccccc1N1OC2C(=O)N(c3ccc(F)cc3)C(=O)C2C1c1ccccn1

>  <Name>  (662) 
nan

>  <Pocket>  (662) 
nan

>  <ATP_Site>  (662) 
nan

>  <Peripheral>  (662) 
nan

>  <Num_H_Atoms_ProtBoundConf>  (662) 
nan

>  <Num_Resolved_Atoms>  (662) 
nan

>  <Num_Not_Resolved_Atoms>  (662) 
nan

$$$$
CHEMBL1422099
     RDKit          3D

  0  0  0  0  0  0  0  0  0  0999 V3000
M  V30 BEGIN CTAB
M  V30 COUNTS 35 36 0 0 0
M  V30 BEGIN ATOM
M  V30 1 C -0.590440 -1.221744 4.528345 0
M  V30 2 C -0.330520 -2.563414 3.859053 0
M  V30 3 S -0.800531 -2.551645 2.118083 0
M  V30 4 C 0.233238 -1.451419 1.170237 0
M  V30 5 N 1.234431 -0.738891 1.757963 0
M  V30 6 C 1.831978 -0.005460 0.800680 0
M  V30 7 C 1.151682 -0.311190 -0.357036 0
M  V30 8 C 1.494588 0.259936 -1.563394 0
M  V30 9 O 0.903929 0.007883 -2.636962 0
M  V30 10 N 2.520503 1.148367 -1.648173 0
M  V30 11 C 3.145537 1.406882 -0.483766 0
M  V30 12 O 4.114932 2.235270 -0.512051 0
M  V30 13 N 2.846744 0.874592 0.714666 0
M  V30 14 C 3.568928 1.204701 1.928933 0
M  V30 15 N 0.158307 -1.199206 -0.170153 0
M  V30 16 C -0.848821 -1.844949 -0.992044 0
M  V30 17 C -2.124630 -1.076606 -1.024792 0
M  V30 18 C -2.878520 -0.516841 -1.960822 0
M  V30 19 C -4.119620 0.187607 -1.605112 0
M  V30 20 Cl -2.171333 -0.777772 -3.546500 0
M  V30 21 H 0.205201 -0.990566 5.269881 0
M  V30 22 H -1.556932 -1.200960 5.062167 0
M  V30 23 H -0.644011 -0.413828 3.771024 0
M  V30 24 H 0.725121 -2.873844 4.025889 0
M  V30 25 H -0.946227 -3.337757 4.381344 0
M  V30 26 H 2.845566 1.624754 -2.516821 0
M  V30 27 H 4.614235 1.510541 1.722016 0
M  V30 28 H 3.491630 0.379764 2.656763 0
M  V30 29 H 3.060765 2.095325 2.402499 0
M  V30 30 H -1.006772 -2.877439 -0.584931 0
M  V30 31 H -0.454356 -2.023302 -2.017320 0
M  V30 32 H -2.404767 -1.031324 0.044710 0
M  V30 33 H -4.544023 0.582728 -2.550199 0
M  V30 34 H -4.848813 -0.455260 -1.064373 0
M  V30 35 H -3.982839 1.073614 -0.950516 0
M  V30 END ATOM
M  V30 BEGIN BOND
M  V30 1 1 1 2
M  V30 2 1 2 3
M  V30 3 1 3 4
M  V30 4 2 4 5
M  V30 5 1 5 6
M  V30 6 2 6 7
M  V30 7 1 7 8
M  V30 8 2 8 9
M  V30 9 1 8 10
M  V30 10 1 10 11
M  V30 11 2 11 12
M  V30 12 1 11 13
M  V30 13 1 13 14
M  V30 14 1 7 15
M  V30 15 1 15 16
M  V30 16 1 16 17
M  V30 17 2 17 18
M  V30 18 1 18 19
M  V30 19 1 18 20
M  V30 20 1 15 4
M  V30 21 1 13 6
M  V30 22 1 1 21
M  V30 23 1 1 22
M  V30 24 1 1 23
M  V30 25 1 2 24
M  V30 26 1 2 25
M  V30 27 1 10 26
M  V30 28 1 14 27
M  V30 29 1 14 28
M  V30 30 1 14 29
M  V30 31 1 16 30
M  V30 32 1 16 31
M  V30 33 1 17 32
M  V30 34 1 19 33
M  V30 35 1 19 34
M  V30 36 1 19 35
M  V30 END BOND
M  V30 END CTAB
M  END
>  <Dataset>  (663) 
ChEMBL_Kinases

>  <Ligand_Instance>  (663) 
nan

>  <PDB_ID>  (663) 
nan

>  <Standardized_SMILES>  (663) 
CCSc1nc2c(c(=O)[nH]c(=O)n2C)n1C/C=C(/C)Cl

>  <Name>  (663) 
nan

>  <Pocket>  (663) 
nan

>  <ATP_Site>  (663) 
nan

>  <Peripheral>  (663) 
nan

>  <Num_H_Atoms_ProtBoundConf>  (663) 
nan

>  <Num_Resolved_Atoms>  (663) 
nan

>  <Num_Not_Resolved_Atoms>  (663) 
nan

$$$$
CHEMBL1422134
     RDKit          3D

  0  0  0  0  0  0  0  0  0  0999 V3000
M  V30 BEGIN CTAB
M  V30 COUNTS 47 49 0 0 0
M  V30 BEGIN ATOM
M  V30 1 C 3.699312 -7.603580 2.325181 0
M  V30 2 O 2.407504 -7.074688 2.318069 0
M  V30 3 C 1.991204 -5.945473 1.640276 0
M  V30 4 C 2.725619 -5.101932 0.841173 0
M  V30 5 C 2.181410 -4.004584 0.221028 0
M  V30 6 C 0.850061 -3.665998 0.356046 0
M  V30 7 C 0.151793 -2.537888 -0.239355 0
M  V30 8 C 0.646030 -1.340889 -0.356229 0
M  V30 9 S 2.224999 -0.639433 0.114000 0
M  V30 10 C 2.070531 0.829054 -0.926424 0
M  V30 11 S 3.250010 1.846237 -1.366589 0
M  V30 12 N 0.692033 0.890723 -1.265730 0
M  V30 13 C 0.141481 2.098519 -1.906691 0
M  V30 14 C -0.365176 3.091116 -0.979602 0
M  V30 15 O -0.805708 4.043688 -1.700473 0
M  V30 16 N -0.482170 3.246763 0.458164 0
M  V30 17 C -0.115672 2.465546 1.657638 0
M  V30 18 C -1.379890 2.043659 2.389641 0
M  V30 19 N -2.509396 2.801152 1.995785 0
M  V30 20 C -3.792820 2.251438 2.160469 0
M  V30 21 C -2.349464 4.179751 1.789482 0
M  V30 22 C -1.136970 4.467906 0.943775 0
M  V30 23 C -0.104817 -0.255563 -0.974319 0
M  V30 24 O -1.353261 -0.284118 -1.245868 0
M  V30 25 C 0.127429 -4.540665 1.173822 0
M  V30 26 C 0.634727 -5.650241 1.812825 0
M  V30 27 H 4.131136 -7.373614 1.306653 0
M  V30 28 H 3.619321 -8.710386 2.389209 0
M  V30 29 H 4.339711 -7.276100 3.148435 0
M  V30 30 H 3.759947 -5.364124 0.734660 0
M  V30 31 H 2.765214 -3.346790 -0.405635 0
M  V30 32 H -0.853466 -2.788903 -0.592811 0
M  V30 33 H -0.664409 1.788118 -2.607504 0
M  V30 34 H 0.944899 2.565595 -2.538924 0
M  V30 35 H 0.569628 3.046423 2.289376 0
M  V30 36 H 0.388164 1.540341 1.320592 0
M  V30 37 H -1.579713 0.957559 2.291542 0
M  V30 38 H -1.188061 2.280494 3.473928 0
M  V30 39 H -4.547274 2.618182 1.408733 0
M  V30 40 H -3.836799 1.145396 2.077241 0
M  V30 41 H -4.236722 2.515918 3.160308 0
M  V30 42 H -2.261859 4.683162 2.785885 0
M  V30 43 H -3.265172 4.565004 1.276095 0
M  V30 44 H -1.465312 5.088407 0.076270 0
M  V30 45 H -0.437413 5.081296 1.548436 0
M  V30 46 H -0.937457 -4.319284 1.314228 0
M  V30 47 H -0.053074 -6.251463 2.428788 0
M  V30 END ATOM
M  V30 BEGIN BOND
M  V30 1 1 1 2
M  V30 2 1 2 3
M  V30 3 2 3 4
M  V30 4 1 4 5
M  V30 5 2 5 6
M  V30 6 1 6 7
M  V30 7 2 7 8
M  V30 8 1 8 9
M  V30 9 1 9 10
M  V30 10 2 10 11
M  V30 11 1 10 12
M  V30 12 1 12 13
M  V30 13 1 13 14
M  V30 14 2 14 15
M  V30 15 1 14 16
M  V30 16 1 16 17
M  V30 17 1 17 18
M  V30 18 1 18 19
M  V30 19 1 19 20
M  V30 20 1 19 21
M  V30 21 1 21 22
M  V30 22 1 12 23
M  V30 23 2 23 24
M  V30 24 1 6 25
M  V30 25 2 25 26
M  V30 26 1 26 3
M  V30 27 1 23 8
M  V30 28 1 22 16
M  V30 29 1 1 27
M  V30 30 1 1 28
M  V30 31 1 1 29
M  V30 32 1 4 30
M  V30 33 1 5 31
M  V30 34 1 7 32
M  V30 35 1 13 33
M  V30 36 1 13 34
M  V30 37 1 17 35
M  V30 38 1 17 36
M  V30 39 1 18 37
M  V30 40 1 18 38
M  V30 41 1 20 39
M  V30 42 1 20 40
M  V30 43 1 20 41
M  V30 44 1 21 42
M  V30 45 1 21 43
M  V30 46 1 22 44
M  V30 47 1 22 45
M  V30 48 1 25 46
M  V30 49 1 26 47
M  V30 END BOND
M  V30 END CTAB
M  END
>  <Dataset>  (664) 
ChEMBL_Kinases

>  <Ligand_Instance>  (664) 
nan

>  <PDB_ID>  (664) 
nan

>  <Standardized_SMILES>  (664) 
COc1ccc(/C=C2\SC(=S)N(CC(=O)N3CCN(C)CC3)C2=O)cc1

>  <Name>  (664) 
nan

>  <Pocket>  (664) 
nan

>  <ATP_Site>  (664) 
nan

>  <Peripheral>  (664) 
nan

>  <Num_H_Atoms_ProtBoundConf>  (664) 
nan

>  <Num_Resolved_Atoms>  (664) 
nan

>  <Num_Not_Resolved_Atoms>  (664) 
nan

$$$$
CHEMBL1422144
     RDKit          3D

  0  0  0  0  0  0  0  0  0  0999 V3000
M  V30 BEGIN CTAB
M  V30 COUNTS 58 62 0 0 0
M  V30 BEGIN ATOM
M  V30 1 C 2.834386 -1.952040 5.482541 0
M  V30 2 C 1.432619 -2.494926 5.355762 0
M  V30 3 O 1.256679 -3.081657 4.094143 0
M  V30 4 C 1.391433 -2.377545 2.913469 0
M  V30 5 C 1.701912 -1.046302 2.804673 0
M  V30 6 C 1.817501 -0.422171 1.590596 0
M  V30 7 C 1.632798 -1.075137 0.392956 0
M  V30 8 C 1.721790 -0.532071 -0.983779 0
M  V30 9 C 1.415067 0.954510 -1.057483 0
M  V30 10 C -0.083954 0.884021 -0.889619 0
M  V30 11 C -1.070399 1.838075 -0.379050 0
M  V30 12 C -1.053641 3.180700 -0.708871 0
M  V30 13 O -0.042188 3.616889 -1.566637 0
M  V30 14 O -1.965032 3.998507 -0.222123 0
M  V30 15 C -2.928000 3.622102 0.585348 0
M  V30 16 C -3.872352 4.491550 1.084477 0
M  V30 17 C -4.859529 4.032895 1.929446 0
M  V30 18 C -4.963873 2.730186 2.315183 0
M  V30 19 C -4.029729 1.811684 1.835268 0
M  V30 20 C -3.038780 2.293960 0.981901 0
M  V30 21 C -2.083073 1.429067 0.473214 0
M  V30 22 O -2.098035 0.207685 0.773040 0
M  V30 23 N -0.508954 -0.282166 -1.300415 0
M  V30 24 N 0.579044 -1.069698 -1.758425 0
M  V30 25 C 0.583418 -2.115515 -2.724636 0
M  V30 26 C 1.696366 -2.800379 -3.162203 0
M  V30 27 C 1.557761 -3.805251 -4.115548 0
M  V30 28 C 0.339767 -4.137198 -4.636461 0
M  V30 29 C -0.792325 -3.452691 -4.202578 0
M  V30 30 C -0.641730 -2.458403 -3.256914 0
M  V30 31 C 1.318031 -2.425048 0.510059 0
M  V30 32 C 1.194728 -3.081930 1.719990 0
M  V30 33 O 0.877086 -4.438958 1.789359 0
M  V30 34 C 0.679109 -5.147056 0.579794 0
M  V30 35 H 2.872106 -0.892198 5.820671 0
M  V30 36 H 3.424154 -2.076700 4.534494 0
M  V30 37 H 3.365670 -2.562433 6.268169 0
M  V30 38 H 0.677448 -1.672592 5.485699 0
M  V30 39 H 1.227791 -3.261111 6.149141 0
M  V30 40 H 1.855946 -0.479203 3.696758 0
M  V30 41 H 2.061111 0.611128 1.547756 0
M  V30 42 H 2.672227 -0.818077 -1.430058 0
M  V30 43 H 1.919358 1.469042 -0.244139 0
M  V30 44 H 1.706952 1.290764 -2.063011 0
M  V30 45 H 0.082475 4.618686 -1.637456 0
M  V30 46 H -3.841719 5.531529 0.815834 0
M  V30 47 H -5.632947 4.659286 2.358493 0
M  V30 48 H -5.691843 2.276846 2.965486 0
M  V30 49 H -3.981018 0.740816 2.052024 0
M  V30 50 H 2.647652 -2.492397 -2.710324 0
M  V30 51 H 2.464672 -4.314448 -4.426937 0
M  V30 52 H 0.285671 -4.916528 -5.366440 0
M  V30 53 H -1.757934 -3.717593 -4.617156 0
M  V30 54 H -1.558691 -1.968687 -2.965335 0
M  V30 55 H 1.148335 -3.048687 -0.344007 0
M  V30 56 H 0.317923 -6.177491 0.795505 0
M  V30 57 H -0.114921 -4.614156 0.000297 0
M  V30 58 H 1.596289 -5.119335 -0.044676 0
M  V30 END ATOM
M  V30 BEGIN BOND
M  V30 1 1 1 2
M  V30 2 1 2 3
M  V30 3 1 3 4
M  V30 4 2 4 5
M  V30 5 1 5 6
M  V30 6 2 6 7
M  V30 7 1 7 8
M  V30 8 1 8 9
M  V30 9 1 9 10
M  V30 10 1 10 11
M  V30 11 2 11 12
M  V30 12 1 12 13
M  V30 13 1 12 14
M  V30 14 1 14 15
M  V30 15 2 15 16
M  V30 16 1 16 17
M  V30 17 2 17 18
M  V30 18 1 18 19
M  V30 19 2 19 20
M  V30 20 1 20 21
M  V30 21 2 21 22
M  V30 22 2 10 23
M  V30 23 1 23 24
M  V30 24 1 24 25
M  V30 25 2 25 26
M  V30 26 1 26 27
M  V30 27 2 27 28
M  V30 28 1 28 29
M  V30 29 2 29 30
M  V30 30 1 7 31
M  V30 31 2 31 32
M  V30 32 1 32 33
M  V30 33 1 33 34
M  V30 34 1 32 4
M  V30 35 1 24 8
M  V30 36 1 30 25
M  V30 37 1 21 11
M  V30 38 1 20 15
M  V30 39 1 1 35
M  V30 40 1 1 36
M  V30 41 1 1 37
M  V30 42 1 2 38
M  V30 43 1 2 39
M  V30 44 1 5 40
M  V30 45 1 6 41
M  V30 46 1 8 42
M  V30 47 1 9 43
M  V30 48 1 9 44
M  V30 49 1 13 45
M  V30 50 1 16 46
M  V30 51 1 17 47
M  V30 52 1 18 48
M  V30 53 1 19 49
M  V30 54 1 26 50
M  V30 55 1 27 51
M  V30 56 1 28 52
M  V30 57 1 29 53
M  V30 58 1 30 54
M  V30 59 1 31 55
M  V30 60 1 34 56
M  V30 61 1 34 57
M  V30 62 1 34 58
M  V30 END BOND
M  V30 END CTAB
M  END
>  <Dataset>  (665) 
ChEMBL_Kinases

>  <Ligand_Instance>  (665) 
nan

>  <PDB_ID>  (665) 
nan

>  <Standardized_SMILES>  (665) 
CCOc1ccc(C2CC(c3c(O)oc4ccccc4c3=O)=NN2c2ccccc2)cc1OC

>  <Name>  (665) 
nan

>  <Pocket>  (665) 
nan

>  <ATP_Site>  (665) 
nan

>  <Peripheral>  (665) 
nan

>  <Num_H_Atoms_ProtBoundConf>  (665) 
nan

>  <Num_Resolved_Atoms>  (665) 
nan

>  <Num_Not_Resolved_Atoms>  (665) 
nan

$$$$
CHEMBL1422229
     RDKit          3D

  0  0  0  0  0  0  0  0  0  0999 V3000
M  V30 BEGIN CTAB
M  V30 COUNTS 27 28 0 0 0
M  V30 BEGIN ATOM
M  V30 1 O -0.161933 -0.050710 1.221049 0
M  V30 2 C -0.235393 -1.312009 1.082172 0
M  V30 3 C -0.200921 -2.363531 2.098571 0
M  V30 4 C -0.054832 -1.742048 3.468520 0
M  V30 5 N 1.188497 -0.969994 3.528262 0
M  V30 6 C 2.331562 -1.593466 3.932990 0
M  V30 7 N 3.351896 -0.725277 3.920461 0
M  V30 8 N 2.819401 0.418296 3.508084 0
M  V30 9 N 1.526403 0.269821 3.274260 0
M  V30 10 N -0.367781 -1.619076 -0.306072 0
M  V30 11 C -0.382318 -0.465115 -1.145981 0
M  V30 12 C -1.612867 0.138124 -1.437941 0
M  V30 13 C -1.734900 1.263625 -2.244182 0
M  V30 14 C -0.580351 1.813575 -2.784193 0
M  V30 15 Cl -0.670075 3.240569 -3.814211 0
M  V30 16 C 0.641054 1.237313 -2.510809 0
M  V30 17 Cl 2.100314 1.927961 -3.190101 0
M  V30 18 C 0.748209 0.109893 -1.701378 0
M  V30 19 H 0.720817 -2.991898 1.936778 0
M  V30 20 H -1.104383 -3.008586 2.112743 0
M  V30 21 H -0.934880 -1.071620 3.607703 0
M  V30 22 H -0.099414 -2.478863 4.287087 0
M  V30 23 H 2.519028 -2.626307 4.243523 0
M  V30 24 H -0.446174 -2.622402 -0.652519 0
M  V30 25 H -2.538727 -0.260948 -1.035487 0
M  V30 26 H -2.677546 1.702849 -2.451152 0
M  V30 27 H 1.700975 -0.364540 -1.469941 0
M  V30 END ATOM
M  V30 BEGIN BOND
M  V30 1 2 1 2
M  V30 2 1 2 3
M  V30 3 1 3 4
M  V30 4 1 4 5
M  V30 5 1 5 6
M  V30 6 2 6 7
M  V30 7 1 7 8
M  V30 8 2 8 9
M  V30 9 1 2 10
M  V30 10 1 10 11
M  V30 11 2 11 12
M  V30 12 1 12 13
M  V30 13 2 13 14
M  V30 14 1 14 15
M  V30 15 1 14 16
M  V30 16 1 16 17
M  V30 17 2 16 18
M  V30 18 1 9 5
M  V30 19 1 18 11
M  V30 20 1 3 19
M  V30 21 1 3 20
M  V30 22 1 4 21
M  V30 23 1 4 22
M  V30 24 1 6 23
M  V30 25 1 10 24
M  V30 26 1 12 25
M  V30 27 1 13 26
M  V30 28 1 18 27
M  V30 END BOND
M  V30 END CTAB
M  END
>  <Dataset>  (666) 
ChEMBL_Kinases

>  <Ligand_Instance>  (666) 
nan

>  <PDB_ID>  (666) 
nan

>  <Standardized_SMILES>  (666) 
O=C(CCn1cnnn1)Nc1ccc(Cl)c(Cl)c1

>  <Name>  (666) 
nan

>  <Pocket>  (666) 
nan

>  <ATP_Site>  (666) 
nan

>  <Peripheral>  (666) 
nan

>  <Num_H_Atoms_ProtBoundConf>  (666) 
nan

>  <Num_Resolved_Atoms>  (666) 
nan

>  <Num_Not_Resolved_Atoms>  (666) 
nan

$$$$
CHEMBL1422308
     RDKit          3D

  0  0  0  0  0  0  0  0  0  0999 V3000
M  V30 BEGIN CTAB
M  V30 COUNTS 40 42 0 0 0
M  V30 BEGIN ATOM
M  V30 1 C 0.377022 -5.457346 1.298776 0
M  V30 2 C 1.118553 -4.709012 2.389651 0
M  V30 3 O 0.727964 -3.332543 2.224117 0
M  V30 4 C 1.014432 -2.726665 1.022109 0
M  V30 5 O 1.581257 -3.545319 0.296913 0
M  V30 6 N 0.763865 -1.418673 0.567369 0
M  V30 7 C 1.022953 -0.753501 -0.615813 0
M  V30 8 C 1.640434 -1.224011 -1.747546 0
M  V30 9 O 2.103435 -2.522178 -1.819176 0
M  V30 10 C 1.875201 -0.516267 -2.906456 0
M  V30 11 C 1.452447 0.795551 -2.944947 0
M  V30 12 C 0.829454 1.295177 -1.823596 0
M  V30 13 O 0.358625 2.489929 -1.647643 0
M  V30 14 C -0.177600 2.651500 -0.461825 0
M  V30 15 C -0.791144 3.930193 -0.003878 0
M  V30 16 C -0.012463 1.423142 0.141530 0
M  V30 17 C -0.519146 1.289753 1.497064 0
M  V30 18 C -1.810206 0.879179 1.862506 0
M  V30 19 C -2.180713 0.805632 3.185655 0
M  V30 20 C -1.320457 1.125226 4.208458 0
M  V30 21 C -0.034817 1.537025 3.925798 0
M  V30 22 C 0.302903 1.599355 2.590128 0
M  V30 23 C 0.625543 0.551311 -0.710871 0
M  V30 24 H -0.076305 -6.375909 1.726000 0
M  V30 25 H 1.072189 -5.818180 0.512268 0
M  V30 26 H -0.462999 -4.867456 0.860785 0
M  V30 27 H 2.231056 -4.789303 2.277760 0
M  V30 28 H 0.801965 -5.092194 3.356617 0
M  V30 29 H 0.289520 -0.970746 1.368843 0
M  V30 30 H 1.569968 -3.151460 -2.434918 0
M  V30 31 H 2.362172 -0.913046 -3.777830 0
M  V30 32 H 1.606761 1.398834 -3.820173 0
M  V30 33 H 0.015879 4.600128 0.410004 0
M  V30 34 H -1.406136 4.424022 -0.769254 0
M  V30 35 H -1.506857 3.626022 0.815204 0
M  V30 36 H -2.449711 0.638430 1.015569 0
M  V30 37 H -3.203213 0.477557 3.394495 0
M  V30 38 H -1.602395 1.070475 5.248483 0
M  V30 39 H 0.706785 1.807074 4.657631 0
M  V30 40 H 1.307259 1.919848 2.336020 0
M  V30 END ATOM
M  V30 BEGIN BOND
M  V30 1 1 1 2
M  V30 2 1 2 3
M  V30 3 1 3 4
M  V30 4 2 4 5
M  V30 5 1 4 6
M  V30 6 1 6 7
M  V30 7 2 7 8
M  V30 8 1 8 9
M  V30 9 1 8 10
M  V30 10 2 10 11
M  V30 11 1 11 12
M  V30 12 1 12 13
M  V30 13 1 13 14
M  V30 14 1 14 15
M  V30 15 2 14 16
M  V30 16 1 16 17
M  V30 17 2 17 18
M  V30 18 1 18 19
M  V30 19 2 19 20
M  V30 20 1 20 21
M  V30 21 2 21 22
M  V30 22 1 16 23
M  V30 23 1 23 7
M  V30 24 2 23 12
M  V30 25 1 22 17
M  V30 26 1 1 24
M  V30 27 1 1 25
M  V30 28 1 1 26
M  V30 29 1 2 27
M  V30 30 1 2 28
M  V30 31 1 6 29
M  V30 32 1 9 30
M  V30 33 1 10 31
M  V30 34 1 11 32
M  V30 35 1 15 33
M  V30 36 1 15 34
M  V30 37 1 15 35
M  V30 38 1 18 36
M  V30 39 1 19 37
M  V30 40 1 20 38
M  V30 41 1 21 39
M  V30 42 1 22 40
M  V30 END BOND
M  V30 END CTAB
M  END
>  <Dataset>  (667) 
ChEMBL_Kinases

>  <Ligand_Instance>  (667) 
nan

>  <PDB_ID>  (667) 
nan

>  <Standardized_SMILES>  (667) 
CCOC(=O)Nc1c(O)ccc2oc(C)c(-c3ccccc3)c12

>  <Name>  (667) 
nan

>  <Pocket>  (667) 
nan

>  <ATP_Site>  (667) 
nan

>  <Peripheral>  (667) 
nan

>  <Num_H_Atoms_ProtBoundConf>  (667) 
nan

>  <Num_Resolved_Atoms>  (667) 
nan

>  <Num_Not_Resolved_Atoms>  (667) 
nan

$$$$
CHEMBL1422352
     RDKit          3D

  0  0  0  0  0  0  0  0  0  0999 V3000
M  V30 BEGIN CTAB
M  V30 COUNTS 31 32 0 0 0
M  V30 BEGIN ATOM
M  V30 1 C -2.552622 -4.117792 2.444325 0
M  V30 2 N -1.168847 -3.752776 2.715257 0
M  V30 3 C -0.425255 -4.848135 3.302585 0
M  V30 4 C -0.856735 -2.404220 2.337393 0
M  V30 5 O -0.224565 -1.878732 1.286626 0
M  V30 6 C -0.206921 -0.567316 1.428557 0
M  V30 7 C 0.351382 0.470657 0.580033 0
M  V30 8 C 0.985803 0.335414 -0.560729 0
M  V30 9 C 1.554659 1.401459 -1.419517 0
M  V30 10 C 2.193483 1.049592 -2.590365 0
M  V30 11 C 2.750479 2.042975 -3.402795 0
M  V30 12 C 2.636671 3.353711 -2.994088 0
M  V30 13 C 1.997374 3.715088 -1.821784 0
M  V30 14 C 1.444069 2.719034 -1.017150 0
M  V30 15 N -0.839599 -0.270238 2.587910 0
M  V30 16 C -1.257212 -1.391421 3.179367 0
M  V30 17 C -1.968162 -1.402959 4.433309 0
M  V30 18 N -2.546570 -1.402244 5.420371 0
M  V30 19 H -2.594304 -4.639356 1.471884 0
M  V30 20 H -3.217871 -3.203202 2.457890 0
M  V30 21 H -2.950298 -4.744421 3.288932 0
M  V30 22 H -0.903307 -5.163905 4.243364 0
M  V30 23 H -0.525968 -5.702876 2.584257 0
M  V30 24 H 0.625837 -4.631243 3.511812 0
M  V30 25 H 0.255579 1.520571 0.893787 0
M  V30 26 H 1.083926 -0.694767 -0.886043 0
M  V30 27 H 2.286825 0.011831 -2.921267 0
M  V30 28 H 3.244975 1.718807 -4.318702 0
M  V30 29 H 3.088157 4.111096 -3.655349 0
M  V30 30 H 1.938579 4.776642 -1.540073 0
M  V30 31 H 0.955078 3.064413 -0.124335 0
M  V30 END ATOM
M  V30 BEGIN BOND
M  V30 1 1 1 2
M  V30 2 1 2 3
M  V30 3 1 2 4
M  V30 4 1 4 5
M  V30 5 1 5 6
M  V30 6 1 6 7
M  V30 7 2 7 8
M  V30 8 1 8 9
M  V30 9 2 9 10
M  V30 10 1 10 11
M  V30 11 2 11 12
M  V30 12 1 12 13
M  V30 13 2 13 14
M  V30 14 2 6 15
M  V30 15 1 15 16
M  V30 16 1 16 17
M  V30 17 3 17 18
M  V30 18 2 16 4
M  V30 19 1 14 9
M  V30 20 1 1 19
M  V30 21 1 1 20
M  V30 22 1 1 21
M  V30 23 1 3 22
M  V30 24 1 3 23
M  V30 25 1 3 24
M  V30 26 1 7 25
M  V30 27 1 8 26
M  V30 28 1 10 27
M  V30 29 1 11 28
M  V30 30 1 12 29
M  V30 31 1 13 30
M  V30 32 1 14 31
M  V30 END BOND
M  V30 END CTAB
M  END
>  <Dataset>  (668) 
ChEMBL_Kinases

>  <Ligand_Instance>  (668) 
nan

>  <PDB_ID>  (668) 
nan

>  <Standardized_SMILES>  (668) 
CN(C)c1oc(/C=C/c2ccccc2)nc1C#N

>  <Name>  (668) 
nan

>  <Pocket>  (668) 
nan

>  <ATP_Site>  (668) 
nan

>  <Peripheral>  (668) 
nan

>  <Num_H_Atoms_ProtBoundConf>  (668) 
nan

>  <Num_Resolved_Atoms>  (668) 
nan

>  <Num_Not_Resolved_Atoms>  (668) 
nan

$$$$
CHEMBL1422415
     RDKit          3D

  0  0  0  0  0  0  0  0  0  0999 V3000
M  V30 BEGIN CTAB
M  V30 COUNTS 38 41 0 0 0
M  V30 BEGIN ATOM
M  V30 1 C -0.069231 -3.900136 0.222765 0
M  V30 2 C 1.095325 -3.926902 0.836133 0
M  V30 3 C 1.650541 -3.067316 1.924293 0
M  V30 4 S 3.166838 -2.206423 1.405667 0
M  V30 5 C 2.678896 -1.049368 0.116856 0
M  V30 6 N 2.667183 -1.403928 -1.172774 0
M  V30 7 C 2.266733 -0.367592 -1.927945 0
M  V30 8 C 2.050818 -0.093394 -3.262664 0
M  V30 9 C 1.617698 1.127318 -3.739503 0
M  V30 10 C 1.398541 2.113889 -2.769664 0
M  V30 11 C 1.588415 1.927934 -1.414774 0
M  V30 12 C 2.021472 0.671736 -1.056051 0
M  V30 13 N 2.277766 0.248662 0.217017 0
M  V30 14 C 2.179064 0.951945 1.506056 0
M  V30 15 C 0.822768 0.775662 2.083570 0
M  V30 16 N 0.720864 1.446935 3.263668 0
M  V30 17 N -0.479846 1.297610 3.786293 0
M  V30 18 C -1.138684 0.519798 2.917508 0
M  V30 19 C -2.514484 0.087364 3.082266 0
M  V30 20 C -3.324585 -0.732752 2.235840 0
M  V30 21 C -4.595683 -0.945411 2.700403 0
M  V30 22 C -5.027819 -0.413898 3.866362 0
M  V30 23 S -3.565859 0.514956 4.474068 0
M  V30 24 O -0.365265 0.215569 1.915972 0
M  V30 25 H -0.381529 -3.042790 0.833717 0
M  V30 26 H -1.072818 -3.489187 0.046664 0
M  V30 27 H 1.696265 -4.730103 0.431871 0
M  V30 28 H 1.866143 -3.735066 2.770444 0
M  V30 29 H 0.904665 -2.290515 2.208432 0
M  V30 30 H 2.243756 -0.914240 -3.961822 0
M  V30 31 H 1.452702 1.326539 -4.789286 0
M  V30 32 H 1.060392 3.058242 -3.171923 0
M  V30 33 H 1.402707 2.721947 -0.728224 0
M  V30 34 H 2.316003 2.041595 1.257410 0
M  V30 35 H 2.971999 0.564381 2.145537 0
M  V30 36 H -2.885604 -1.108180 1.325658 0
M  V30 37 H -5.284749 -1.552838 2.129919 0
M  V30 38 H -5.936681 -0.463177 4.372421 0
M  V30 END ATOM
M  V30 BEGIN BOND
M  V30 1 2 1 2
M  V30 2 1 2 3
M  V30 3 1 3 4
M  V30 4 1 4 5
M  V30 5 2 5 6
M  V30 6 1 6 7
M  V30 7 2 7 8
M  V30 8 1 8 9
M  V30 9 2 9 10
M  V30 10 1 10 11
M  V30 11 2 11 12
M  V30 12 1 12 13
M  V30 13 1 13 14
M  V30 14 1 14 15
M  V30 15 2 15 16
M  V30 16 1 16 17
M  V30 17 2 17 18
M  V30 18 1 18 19
M  V30 19 2 19 20
M  V30 20 1 20 21
M  V30 21 2 21 22
M  V30 22 1 22 23
M  V30 23 1 18 24
M  V30 24 1 13 5
M  V30 25 1 24 15
M  V30 26 1 12 7
M  V30 27 1 23 19
M  V30 28 1 1 25
M  V30 29 1 1 26
M  V30 30 1 2 27
M  V30 31 1 3 28
M  V30 32 1 3 29
M  V30 33 1 8 30
M  V30 34 1 9 31
M  V30 35 1 10 32
M  V30 36 1 11 33
M  V30 37 1 14 34
M  V30 38 1 14 35
M  V30 39 1 20 36
M  V30 40 1 21 37
M  V30 41 1 22 38
M  V30 END BOND
M  V30 END CTAB
M  END
>  <Dataset>  (669) 
ChEMBL_Kinases

>  <Ligand_Instance>  (669) 
nan

>  <PDB_ID>  (669) 
nan

>  <Standardized_SMILES>  (669) 
C=CCSc1nc2ccccc2n1Cc1nnc(-c2cccs2)o1

>  <Name>  (669) 
nan

>  <Pocket>  (669) 
nan

>  <ATP_Site>  (669) 
nan

>  <Peripheral>  (669) 
nan

>  <Num_H_Atoms_ProtBoundConf>  (669) 
nan

>  <Num_Resolved_Atoms>  (669) 
nan

>  <Num_Not_Resolved_Atoms>  (669) 
nan

$$$$
CHEMBL1421890
     RDKit          3D

  0  0  0  0  0  0  0  0  0  0999 V3000
M  V30 BEGIN CTAB
M  V30 COUNTS 44 44 0 0 0
M  V30 BEGIN ATOM
M  V30 1 C -4.084760 -5.091099 0.317229 0
M  V30 2 O -3.333453 -4.293158 1.175830 0
M  V30 3 C -2.033648 -3.892150 1.031698 0
M  V30 4 C -1.195704 -4.208918 -0.014782 0
M  V30 5 C 0.121277 -3.759664 -0.087692 0
M  V30 6 C 0.645357 -2.953075 0.925294 0
M  V30 7 C 2.061280 -2.551408 0.725241 0
M  V30 8 N 2.056630 -1.315246 -0.035094 0
M  V30 9 C 1.762452 -0.023852 0.429319 0
M  V30 10 O 1.462019 0.169136 1.611297 0
M  V30 11 N 1.797015 1.098401 -0.424248 0
M  V30 12 C 1.497391 2.414997 0.047766 0 CFG=2
M  V30 13 C 0.329428 2.892689 -0.736671 0
M  V30 14 O -0.188432 4.045028 -0.553389 0
M  V30 15 O -0.742970 3.113652 -1.579820 0
M  V30 16 C 2.579434 3.429950 -0.128788 0
M  V30 17 C 3.851102 3.079098 0.575550 0
M  V30 18 C 2.074512 4.734337 0.459825 0
M  V30 19 C -0.196092 -2.641407 1.965059 0
M  V30 20 C -1.490743 -3.100312 2.008063 0
M  V30 21 O -2.245119 -2.729947 3.091169 0
M  V30 22 C -1.836238 -1.931929 4.162802 0
M  V30 23 H -4.834795 -4.504711 -0.253041 0
M  V30 24 H -4.577866 -5.890005 0.921535 0
M  V30 25 H -3.420096 -5.599140 -0.399359 0
M  V30 26 H -1.582342 -4.828138 -0.803129 0
M  V30 27 H 0.707914 -4.055468 -0.942605 0
M  V30 28 H 2.523908 -2.371686 1.739955 0
M  V30 29 H 2.617669 -3.347152 0.212078 0
M  V30 30 H 2.303814 -1.394943 -1.059697 0
M  V30 31 H 2.049324 0.992811 -1.450468 0
M  V30 32 H 1.239729 2.372965 1.127039 0
M  V30 33 H -0.748070 2.603423 -2.475792 0
M  V30 34 H 2.750582 3.662336 -1.220986 0
M  V30 35 H 4.089158 3.787751 1.419119 0
M  V30 36 H 3.890846 2.087359 1.033865 0
M  V30 37 H 4.703241 3.250523 -0.142975 0
M  V30 38 H 1.296117 4.506619 1.208593 0
M  V30 39 H 2.890022 5.240156 1.058316 0
M  V30 40 H 1.679606 5.427426 -0.315342 0
M  V30 41 H 0.245988 -2.019261 2.725203 0
M  V30 42 H -2.469343 -2.167264 5.068408 0
M  V30 43 H -0.799726 -2.066040 4.477281 0
M  V30 44 H -2.048531 -0.843504 3.983929 0
M  V30 END ATOM
M  V30 BEGIN BOND
M  V30 1 1 1 2
M  V30 2 1 2 3
M  V30 3 2 3 4
M  V30 4 1 4 5
M  V30 5 2 5 6
M  V30 6 1 6 7
M  V30 7 1 7 8
M  V30 8 1 8 9
M  V30 9 2 9 10
M  V30 10 1 9 11
M  V30 11 1 11 12
M  V30 12 1 12 13
M  V30 13 2 13 14
M  V30 14 1 13 15
M  V30 15 1 12 16
M  V30 16 1 16 17
M  V30 17 1 16 18
M  V30 18 1 6 19
M  V30 19 2 19 20
M  V30 20 1 20 21
M  V30 21 1 21 22
M  V30 22 1 20 3
M  V30 23 1 1 23
M  V30 24 1 1 24
M  V30 25 1 1 25
M  V30 26 1 4 26
M  V30 27 1 5 27
M  V30 28 1 7 28
M  V30 29 1 7 29
M  V30 30 1 8 30
M  V30 31 1 11 31
M  V30 32 1 12 32 CFG=1
M  V30 33 1 15 33
M  V30 34 1 16 34
M  V30 35 1 17 35
M  V30 36 1 17 36
M  V30 37 1 17 37
M  V30 38 1 18 38
M  V30 39 1 18 39
M  V30 40 1 18 40
M  V30 41 1 19 41
M  V30 42 1 22 42
M  V30 43 1 22 43
M  V30 44 1 22 44
M  V30 END BOND
M  V30 END CTAB
M  END
>  <Dataset>  (670) 
ChEMBL_Kinases

>  <Ligand_Instance>  (670) 
nan

>  <PDB_ID>  (670) 
nan

>  <Standardized_SMILES>  (670) 
COc1ccc(CNC(=O)N[C@H](C(=O)O)C(C)C)cc1OC

>  <Name>  (670) 
nan

>  <Pocket>  (670) 
nan

>  <ATP_Site>  (670) 
nan

>  <Peripheral>  (670) 
nan

>  <Num_H_Atoms_ProtBoundConf>  (670) 
nan

>  <Num_Resolved_Atoms>  (670) 
nan

>  <Num_Not_Resolved_Atoms>  (670) 
nan

$$$$
CHEMBL1438556
     RDKit          3D

  0  0  0  0  0  0  0  0  0  0999 V3000
M  V30 BEGIN CTAB
M  V30 COUNTS 59 61 0 0 0
M  V30 BEGIN ATOM
M  V30 1 C 7.109043 -1.129316 2.425534 0
M  V30 2 O 5.732423 -1.304895 2.180496 0
M  V30 3 C 5.184501 -2.560401 1.952494 0
M  V30 4 O 6.028458 -3.485013 1.989216 0
M  V30 5 C 3.770183 -2.927340 1.680335 0
M  V30 6 O 2.900382 -1.827972 1.651745 0
M  V30 7 C 2.979186 -0.765744 0.798070 0
M  V30 8 C 3.875782 -0.491312 -0.212127 0
M  V30 9 C 3.790845 0.649246 -0.976191 0
M  V30 10 C 2.801942 1.566005 -0.760819 0
M  V30 11 C 1.886699 1.323011 0.242879 0
M  V30 12 C 0.915734 2.292571 0.403106 0
M  V30 13 O 0.872398 3.325744 -0.319328 0
M  V30 14 N -0.008363 2.116478 1.365479 0
M  V30 15 C -1.066993 3.080553 1.608664 0
M  V30 16 C -2.261199 2.728376 0.767487 0
M  V30 17 O -3.184133 3.556488 0.970226 0
M  V30 18 N -2.353619 1.613167 -0.140854 0
M  V30 19 C -3.646277 1.618476 -0.751580 0
M  V30 20 C -3.774348 0.477179 -1.698446 0
M  V30 21 C -3.611797 -0.858958 -1.088340 0
M  V30 22 C -4.725025 -1.500552 -0.594016 0
M  V30 23 C -4.724839 -2.746766 -0.000163 0
M  V30 24 C -3.502053 -3.420813 0.113913 0
M  V30 25 O -3.321552 -4.676490 0.681786 0
M  V30 26 C -4.379915 -5.444001 1.226693 0
M  V30 27 C -2.380716 -2.785384 -0.378870 0
M  V30 28 O -1.145323 -3.401716 -0.294427 0
M  V30 29 C 0.028227 -2.782461 -0.788479 0
M  V30 30 C -2.405292 -1.537512 -0.969375 0
M  V30 31 C 0.015648 1.009744 2.159552 0
M  V30 32 C 0.984127 0.040180 2.001560 0
M  V30 33 C 1.966901 0.175345 1.016479 0
M  V30 34 H 7.362126 -0.107511 2.033966 0
M  V30 35 H 7.349997 -1.259188 3.493675 0
M  V30 36 H 7.655575 -1.835624 1.782333 0
M  V30 37 H 3.413718 -3.761332 2.283964 0
M  V30 38 H 3.784186 -3.320893 0.620399 0
M  V30 39 H 4.629465 -1.255231 -0.330106 0
M  V30 40 H 4.530517 0.798668 -1.752599 0
M  V30 41 H 2.780774 2.445981 -1.390306 0
M  V30 42 H -1.402806 3.000644 2.664505 0
M  V30 43 H -0.757894 4.129234 1.434145 0
M  V30 44 H -1.488327 1.035068 -0.176609 0
M  V30 45 H -3.728049 2.546056 -1.356709 0
M  V30 46 H -4.476312 1.685816 -0.017809 0
M  V30 47 H -4.799508 0.531393 -2.155016 0
M  V30 48 H -3.012860 0.617298 -2.494464 0
M  V30 49 H -5.707546 -1.048432 -0.643105 0
M  V30 50 H -5.580430 -3.249934 0.384606 0
M  V30 51 H -4.603626 -5.169961 2.279682 0
M  V30 52 H -4.181559 -6.540468 1.119147 0
M  V30 53 H -5.305136 -5.254065 0.644624 0
M  V30 54 H 0.900377 -3.453761 -0.736910 0
M  V30 55 H 0.287768 -1.840727 -0.290789 0
M  V30 56 H -0.119151 -2.557683 -1.877541 0
M  V30 57 H -1.517319 -1.053085 -1.351376 0
M  V30 58 H -0.716266 0.830996 2.950897 0
M  V30 59 H 1.020122 -0.854114 2.628244 0
M  V30 END ATOM
M  V30 BEGIN BOND
M  V30 1 1 1 2
M  V30 2 1 2 3
M  V30 3 2 3 4
M  V30 4 1 3 5
M  V30 5 1 5 6
M  V30 6 1 6 7
M  V30 7 2 7 8
M  V30 8 1 8 9
M  V30 9 2 9 10
M  V30 10 1 10 11
M  V30 11 1 11 12
M  V30 12 2 12 13
M  V30 13 1 12 14
M  V30 14 1 14 15
M  V30 15 1 15 16
M  V30 16 2 16 17
M  V30 17 1 16 18
M  V30 18 1 18 19
M  V30 19 1 19 20
M  V30 20 1 20 21
M  V30 21 2 21 22
M  V30 22 1 22 23
M  V30 23 2 23 24
M  V30 24 1 24 25
M  V30 25 1 25 26
M  V30 26 1 24 27
M  V30 27 1 27 28
M  V30 28 1 28 29
M  V30 29 2 27 30
M  V30 30 1 14 31
M  V30 31 2 31 32
M  V30 32 1 32 33
M  V30 33 1 33 7
M  V30 34 2 33 11
M  V30 35 1 30 21
M  V30 36 1 1 34
M  V30 37 1 1 35
M  V30 38 1 1 36
M  V30 39 1 5 37
M  V30 40 1 5 38
M  V30 41 1 8 39
M  V30 42 1 9 40
M  V30 43 1 10 41
M  V30 44 1 15 42
M  V30 45 1 15 43
M  V30 46 1 18 44
M  V30 47 1 19 45
M  V30 48 1 19 46
M  V30 49 1 20 47
M  V30 50 1 20 48
M  V30 51 1 22 49
M  V30 52 1 23 50
M  V30 53 1 26 51
M  V30 54 1 26 52
M  V30 55 1 26 53
M  V30 56 1 29 54
M  V30 57 1 29 55
M  V30 58 1 29 56
M  V30 59 1 30 57
M  V30 60 1 31 58
M  V30 61 1 32 59
M  V30 END BOND
M  V30 END CTAB
M  END
>  <Dataset>  (671) 
ChEMBL_Kinases

>  <Ligand_Instance>  (671) 
nan

>  <PDB_ID>  (671) 
nan

>  <Standardized_SMILES>  (671) 
COC(=O)COc1cccc2c(=O)n(CC(=O)NCCc3ccc(OC)c(OC)c3)ccc12

>  <Name>  (671) 
nan

>  <Pocket>  (671) 
nan

>  <ATP_Site>  (671) 
nan

>  <Peripheral>  (671) 
nan

>  <Num_H_Atoms_ProtBoundConf>  (671) 
nan

>  <Num_Resolved_Atoms>  (671) 
nan

>  <Num_Not_Resolved_Atoms>  (671) 
nan

$$$$
CHEMBL1438440
     RDKit          3D

  0  0  0  0  0  0  0  0  0  0999 V3000
M  V30 BEGIN CTAB
M  V30 COUNTS 60 63 0 0 0
M  V30 BEGIN ATOM
M  V30 1 C 4.171681 -4.850798 2.115113 0
M  V30 2 C 4.173350 -3.434797 1.636655 0
M  V30 3 O 5.231137 -2.754983 1.623502 0
M  V30 4 O 2.915143 -3.032307 1.242792 0
M  V30 5 C 2.660920 -1.730916 0.744035 0 CFG=2
M  V30 6 C 3.409708 -1.448270 -0.483141 0
M  V30 7 C 3.919666 -0.678303 -1.644082 0
M  V30 8 O 3.931990 -2.569227 -0.596665 0
M  V30 9 C 2.959938 -0.684352 1.825799 0
M  V30 10 C 1.758296 0.237522 1.883365 0
M  V30 11 C 1.019744 -0.114877 0.622152 0 CFG=2
M  V30 12 C -0.366765 0.377791 0.503916 0 CFG=2
M  V30 13 C -0.947937 0.975171 1.723880 0
M  V30 14 C -2.250640 1.209652 1.687246 0
M  V30 15 C -2.993774 1.802097 2.817175 0
M  V30 16 C -3.009063 0.883654 0.505369 0
M  V30 17 C -4.157686 1.524719 0.225508 0
M  V30 18 C -4.895078 1.159624 -0.987687 0
M  V30 19 O -6.129561 1.223233 -1.004761 0
M  V30 20 C -4.127480 0.716571 -2.181271 0
M  V30 21 C -2.680930 0.445366 -1.847054 0
M  V30 22 C -2.605405 -0.155101 -0.478489 0 CFG=2
M  V30 23 C -3.633608 -1.261605 -0.409866 0
M  V30 24 C -1.272205 -0.675034 -0.093175 0 CFG=1
M  V30 25 C -0.505223 -1.315695 -1.222751 0
M  V30 26 C 0.597331 -2.171088 -0.629014 0
M  V30 27 C 1.165301 -1.608000 0.636397 0 CFG=1
M  V30 28 C 0.595516 -2.272182 1.873179 0
M  V30 29 H 3.747550 -4.835633 3.138574 0
M  V30 30 H 5.225192 -5.171896 2.190766 0
M  V30 31 H 3.590930 -5.489492 1.412869 0
M  V30 32 H 3.662294 -1.176443 -2.601119 0
M  V30 33 H 3.496636 0.343971 -1.729820 0
M  V30 34 H 5.046174 -0.641873 -1.612442 0
M  V30 35 H 3.891214 -0.152334 1.622115 0
M  V30 36 H 3.072364 -1.161485 2.823991 0
M  V30 37 H 2.063716 1.289186 1.818435 0
M  V30 38 H 1.173606 0.096806 2.813362 0
M  V30 39 H 1.657724 0.249832 -0.209652 0
M  V30 40 H -0.376646 1.216166 -0.254813 0
M  V30 41 H -0.489366 1.260644 2.660150 0
M  V30 42 H -2.252950 2.075833 3.624915 0
M  V30 43 H -3.615388 1.008771 3.298050 0
M  V30 44 H -3.521839 2.731541 2.597146 0
M  V30 45 H -4.534134 2.295817 0.880481 0
M  V30 46 H -4.655437 -0.156183 -2.607623 0
M  V30 47 H -4.253356 1.540698 -2.935672 0
M  V30 48 H -2.138060 1.427502 -1.906171 0
M  V30 49 H -2.283453 -0.208213 -2.636315 0
M  V30 50 H -3.186171 -2.139269 0.125513 0
M  V30 51 H -4.522330 -0.982496 0.196260 0
M  V30 52 H -3.963625 -1.634858 -1.384509 0
M  V30 53 H -1.456614 -1.468917 0.660432 0
M  V30 54 H -1.148405 -1.902601 -1.890289 0
M  V30 55 H -0.000121 -0.521693 -1.819904 0
M  V30 56 H 1.329448 -2.435930 -1.396341 0
M  V30 57 H 0.092540 -3.141897 -0.358950 0
M  V30 58 H 0.038909 -1.574309 2.533603 0
M  V30 59 H 1.368417 -2.718672 2.533717 0
M  V30 60 H -0.036509 -3.165397 1.589980 0
M  V30 END ATOM
M  V30 BEGIN BOND
M  V30 1 1 1 2
M  V30 2 2 2 3
M  V30 3 1 2 4
M  V30 4 1 5 4 CFG=1
M  V30 5 1 5 6
M  V30 6 1 6 7
M  V30 7 2 6 8
M  V30 8 1 5 9
M  V30 9 1 9 10
M  V30 10 1 10 11
M  V30 11 1 11 12
M  V30 12 1 12 13
M  V30 13 2 13 14
M  V30 14 1 14 15
M  V30 15 1 14 16
M  V30 16 2 16 17
M  V30 17 1 17 18
M  V30 18 2 18 19
M  V30 19 1 18 20
M  V30 20 1 20 21
M  V30 21 1 21 22
M  V30 22 1 22 23 CFG=3
M  V30 23 1 22 24
M  V30 24 1 24 25
M  V30 25 1 25 26
M  V30 26 1 26 27
M  V30 27 1 27 28 CFG=1
M  V30 28 1 27 5
M  V30 29 1 27 11
M  V30 30 1 24 12
M  V30 31 1 22 16
M  V30 32 1 1 29
M  V30 33 1 1 30
M  V30 34 1 1 31
M  V30 35 1 7 32
M  V30 36 1 7 33
M  V30 37 1 7 34
M  V30 38 1 9 35
M  V30 39 1 9 36
M  V30 40 1 10 37
M  V30 41 1 10 38
M  V30 42 1 11 39 CFG=3
M  V30 43 1 12 40 CFG=3
M  V30 44 1 13 41
M  V30 45 1 15 42
M  V30 46 1 15 43
M  V30 47 1 15 44
M  V30 48 1 17 45
M  V30 49 1 20 46
M  V30 50 1 20 47
M  V30 51 1 21 48
M  V30 52 1 21 49
M  V30 53 1 23 50
M  V30 54 1 23 51
M  V30 55 1 23 52
M  V30 56 1 24 53 CFG=1
M  V30 57 1 25 54
M  V30 58 1 25 55
M  V30 59 1 26 56
M  V30 60 1 26 57
M  V30 61 1 28 58
M  V30 62 1 28 59
M  V30 63 1 28 60
M  V30 END BOND
M  V30 END CTAB
M  END
>  <Dataset>  (672) 
ChEMBL_Kinases

>  <Ligand_Instance>  (672) 
nan

>  <PDB_ID>  (672) 
nan

>  <Standardized_SMILES>  (672) 
CC(=O)O[C@]1(C(C)=O)CC[C@@H]2[C@@H]3C=C(C)C4=CC(=O)CC[C@@]4(C)[C@H]3CC[C@]21C

>  <Name>  (672) 
nan

>  <Pocket>  (672) 
nan

>  <ATP_Site>  (672) 
nan

>  <Peripheral>  (672) 
nan

>  <Num_H_Atoms_ProtBoundConf>  (672) 
nan

>  <Num_Resolved_Atoms>  (672) 
nan

>  <Num_Not_Resolved_Atoms>  (672) 
nan

$$$$
CHEMBL1438329
     RDKit          3D

  0  0  0  0  0  0  0  0  0  0999 V3000
M  V30 BEGIN CTAB
M  V30 COUNTS 38 39 0 0 0
M  V30 BEGIN ATOM
M  V30 1 C -1.927295 0.197872 3.075027 0
M  V30 2 C -1.064198 -0.341281 2.021176 0
M  V30 3 C -1.040549 -1.576796 1.591599 0
M  V30 4 C -0.271706 -2.351765 0.558101 0
M  V30 5 C 0.453025 -3.436575 1.347188 0
M  V30 6 C -1.206572 -3.089217 -0.363208 0
M  V30 7 N 0.614172 -1.482414 -0.144395 0 CHG=1 VAL=4
M  V30 8 C 1.984839 -1.948448 -0.035577 0
M  V30 9 C 0.199383 -1.376659 -1.533478 0
M  V30 10 C 0.610816 -0.151431 0.337763 0
M  V30 11 C 1.545398 0.630407 -0.356411 0
M  V30 12 C 1.711236 1.988300 -0.060759 0
M  V30 13 C 0.961998 2.617892 0.927381 0
M  V30 14 C 1.074077 4.048196 1.302884 0
M  V30 15 C 0.041220 1.838176 1.608472 0
M  V30 16 C -0.112620 0.503440 1.308751 0
M  V30 17 H -2.561258 1.030798 2.769465 0
M  V30 18 H -1.332519 0.390303 3.990998 0
M  V30 19 H -2.639101 -0.641098 3.334775 0
M  V30 20 H -1.729038 -2.284296 2.054548 0
M  V30 21 H 1.346412 -3.041123 1.863880 0
M  V30 22 H -0.246083 -3.724022 2.187119 0
M  V30 23 H 0.736635 -4.307965 0.746819 0
M  V30 24 H -2.146257 -2.500553 -0.482765 0
M  V30 25 H -1.493706 -4.096100 0.075675 0
M  V30 26 H -0.823765 -3.322924 -1.350186 0
M  V30 27 H 2.623108 -1.523434 -0.841044 0
M  V30 28 H 2.383353 -1.558966 0.923465 0
M  V30 29 H 2.096207 -3.040138 -0.021530 0
M  V30 30 H -0.906196 -1.308592 -1.537179 0
M  V30 31 H 0.590758 -2.158498 -2.187054 0
M  V30 32 H 0.595429 -0.407462 -1.953063 0
M  V30 33 H 2.253730 0.423896 -1.156865 0
M  V30 34 H 2.392355 2.700647 -0.517723 0
M  V30 35 H 2.117004 4.436008 1.201344 0
M  V30 36 H 0.434202 4.654788 0.630885 0
M  V30 37 H 0.806023 4.171758 2.371492 0
M  V30 38 H -0.595796 2.216143 2.394609 0
M  V30 END ATOM
M  V30 BEGIN BOND
M  V30 1 1 1 2
M  V30 2 2 2 3
M  V30 3 1 3 4
M  V30 4 1 4 5
M  V30 5 1 4 6
M  V30 6 1 4 7
M  V30 7 1 7 8
M  V30 8 1 7 9
M  V30 9 1 7 10
M  V30 10 2 10 11
M  V30 11 1 11 12
M  V30 12 2 12 13
M  V30 13 1 13 14
M  V30 14 1 13 15
M  V30 15 2 15 16
M  V30 16 1 16 2
M  V30 17 1 16 10
M  V30 18 1 1 17
M  V30 19 1 1 18
M  V30 20 1 1 19
M  V30 21 1 3 20
M  V30 22 1 5 21
M  V30 23 1 5 22
M  V30 24 1 5 23
M  V30 25 1 6 24
M  V30 26 1 6 25
M  V30 27 1 6 26
M  V30 28 1 8 27
M  V30 29 1 8 28
M  V30 30 1 8 29
M  V30 31 1 9 30
M  V30 32 1 9 31
M  V30 33 1 9 32
M  V30 34 1 11 33
M  V30 35 1 12 34
M  V30 36 1 14 35
M  V30 37 1 14 36
M  V30 38 1 14 37
M  V30 39 1 15 38
M  V30 END BOND
M  V30 END CTAB
M  END
>  <Dataset>  (673) 
ChEMBL_Kinases

>  <Ligand_Instance>  (673) 
nan

>  <PDB_ID>  (673) 
nan

>  <Standardized_SMILES>  (673) 
CC1=CC(C)(C)[N+](C)(C)c2ccc(C)cc21

>  <Name>  (673) 
nan

>  <Pocket>  (673) 
nan

>  <ATP_Site>  (673) 
nan

>  <Peripheral>  (673) 
nan

>  <Num_H_Atoms_ProtBoundConf>  (673) 
nan

>  <Num_Resolved_Atoms>  (673) 
nan

>  <Num_Not_Resolved_Atoms>  (673) 
nan

$$$$
CHEMBL1438123
     RDKit          3D

  0  0  0  0  0  0  0  0  0  0999 V3000
M  V30 BEGIN CTAB
M  V30 COUNTS 53 57 0 0 0
M  V30 BEGIN ATOM
M  V30 1 C 0.400901 -1.447219 3.564105 0
M  V30 2 C -0.245611 -0.538780 2.611611 0
M  V30 3 C -0.077743 0.855337 2.537460 0
M  V30 4 C 0.823656 1.736589 3.353940 0
M  V30 5 O 1.007622 2.603372 4.191375 0
M  V30 6 N 2.211521 1.455074 2.962936 0
M  V30 7 C 3.578100 1.183756 2.583729 0
M  V30 8 C 4.111112 2.082491 1.554303 0
M  V30 9 C 3.124227 2.345933 0.596834 0
M  V30 10 C 3.342281 3.089093 -0.574223 0
M  V30 11 C 4.629975 3.549230 -0.708495 0
M  V30 12 C 5.593955 3.298072 0.221256 0
M  V30 13 C 5.368944 2.570170 1.359634 0
M  V30 14 O 6.775713 3.891512 -0.195956 0
M  V30 15 C 6.436578 4.820122 -1.241692 0
M  V30 16 O 5.214307 4.303683 -1.714396 0
M  V30 17 O -0.812688 1.429995 1.597995 0
M  V30 18 C -1.502228 0.480070 0.984942 0
M  V30 19 C -2.401105 0.403835 -0.046379 0
M  V30 20 C -2.930030 -0.830955 -0.449663 0
M  V30 21 C -2.571739 -2.016494 0.179001 0
M  V30 22 S -3.054106 -3.598498 -0.371007 0
M  V30 23 O -2.725120 -3.748175 -1.857729 0
M  V30 24 O -2.163931 -4.665630 0.288968 0
M  V30 25 N -4.667800 -4.037076 -0.090908 0
M  V30 26 C -5.449259 -4.129879 -1.341098 0
M  V30 27 C -4.900337 -5.387694 -2.000631 0
M  V30 28 C -4.327136 -6.218511 -0.880181 0
M  V30 29 C -4.817958 -5.434909 0.352613 0
M  V30 30 C -1.653055 -1.973729 1.249580 0
M  V30 31 C -1.158264 -0.698660 1.601291 0
M  V30 32 H 0.842178 -2.302588 2.982039 0
M  V30 33 H -0.338241 -1.813233 4.338940 0
M  V30 34 H 1.239336 -0.910211 4.105771 0
M  V30 35 H 2.104907 0.753564 2.133473 0
M  V30 36 H 3.809567 0.153304 2.410434 0
M  V30 37 H 4.234769 1.422782 3.529896 0
M  V30 38 H 2.059512 2.044003 0.604841 0
M  V30 39 H 2.591855 3.307558 -1.312962 0
M  V30 40 H 6.024981 2.280464 2.165758 0
M  V30 41 H 7.240511 4.771872 -2.001097 0
M  V30 42 H 6.337960 5.821077 -0.765918 0
M  V30 43 H -2.681928 1.347597 -0.527464 0
M  V30 44 H -3.618097 -0.864177 -1.257862 0
M  V30 45 H -6.508380 -4.358598 -0.992712 0
M  V30 46 H -5.388778 -3.236476 -1.960123 0
M  V30 47 H -5.790102 -5.908988 -2.460137 0
M  V30 48 H -4.233646 -5.182332 -2.834077 0
M  V30 49 H -4.790135 -7.238685 -0.921791 0
M  V30 50 H -3.234363 -6.312580 -0.878516 0
M  V30 51 H -4.213229 -5.636738 1.230533 0
M  V30 52 H -5.888384 -5.634252 0.407933 0
M  V30 53 H -1.375008 -2.889469 1.751428 0
M  V30 END ATOM
M  V30 BEGIN BOND
M  V30 1 1 1 2
M  V30 2 2 2 3
M  V30 3 1 3 4
M  V30 4 2 4 5
M  V30 5 1 4 6
M  V30 6 1 6 7
M  V30 7 1 7 8
M  V30 8 2 8 9
M  V30 9 1 9 10
M  V30 10 2 10 11
M  V30 11 1 11 12
M  V30 12 2 12 13
M  V30 13 1 12 14
M  V30 14 1 14 15
M  V30 15 1 15 16
M  V30 16 1 3 17
M  V30 17 1 17 18
M  V30 18 2 18 19
M  V30 19 1 19 20
M  V30 20 2 20 21
M  V30 21 1 21 22
M  V30 22 2 22 23
M  V30 23 2 22 24
M  V30 24 1 22 25
M  V30 25 1 25 26
M  V30 26 1 26 27
M  V30 27 1 27 28
M  V30 28 1 28 29
M  V30 29 1 21 30
M  V30 30 2 30 31
M  V30 31 1 31 2
M  V30 32 1 13 8
M  V30 33 1 31 18
M  V30 34 1 16 11
M  V30 35 1 29 25
M  V30 36 1 1 32
M  V30 37 1 1 33
M  V30 38 1 1 34
M  V30 39 1 6 35
M  V30 40 1 7 36
M  V30 41 1 7 37
M  V30 42 1 9 38
M  V30 43 1 10 39
M  V30 44 1 13 40
M  V30 45 1 15 41
M  V30 46 1 15 42
M  V30 47 1 19 43
M  V30 48 1 20 44
M  V30 49 1 26 45
M  V30 50 1 26 46
M  V30 51 1 27 47
M  V30 52 1 27 48
M  V30 53 1 28 49
M  V30 54 1 28 50
M  V30 55 1 29 51
M  V30 56 1 29 52
M  V30 57 1 30 53
M  V30 END BOND
M  V30 END CTAB
M  END
>  <Dataset>  (674) 
ChEMBL_Kinases

>  <Ligand_Instance>  (674) 
nan

>  <PDB_ID>  (674) 
nan

>  <Standardized_SMILES>  (674) 
Cc1c(C(=O)NCc2ccc3c(c2)OCO3)oc2ccc(S(=O)(=O)N3CCCC3)cc12

>  <Name>  (674) 
nan

>  <Pocket>  (674) 
nan

>  <ATP_Site>  (674) 
nan

>  <Peripheral>  (674) 
nan

>  <Num_H_Atoms_ProtBoundConf>  (674) 
nan

>  <Num_Resolved_Atoms>  (674) 
nan

>  <Num_Not_Resolved_Atoms>  (674) 
nan

$$$$
CHEMBL1438105
     RDKit          3D

  0  0  0  0  0  0  0  0  0  0999 V3000
M  V30 BEGIN CTAB
M  V30 COUNTS 51 53 0 0 0
M  V30 BEGIN ATOM
M  V30 1 C -0.531051 -3.633738 4.394345 0
M  V30 2 O 0.004666 -4.590017 3.500266 0
M  V30 3 C 0.480226 -4.183771 2.260509 0
M  V30 4 C 0.492390 -2.892594 1.773643 0
M  V30 5 C 0.997604 -2.621001 0.513433 0
M  V30 6 N 0.970474 -1.261892 0.093045 0
M  V30 7 C 2.009132 -0.327131 0.311667 0
M  V30 8 O 2.945520 -0.858035 0.920469 0
M  V30 9 C 1.742515 1.042450 -0.226867 0
M  V30 10 C 1.547512 0.871126 -1.713928 0
M  V30 11 C 0.905582 2.046105 -2.341216 0
M  V30 12 O 1.195882 2.665056 -3.419706 0
M  V30 13 N -0.215917 2.605894 -1.669182 0
M  V30 14 C -0.385237 2.395982 -0.253216 0
M  V30 15 C 0.543815 1.665128 0.382679 0
M  V30 16 C 0.355522 1.464212 1.812108 0
M  V30 17 O 1.326991 1.235599 2.605206 0
M  V30 18 C -0.980000 1.507322 2.472440 0
M  V30 19 C -2.073634 1.859426 1.490700 0
M  V30 20 C -2.525439 0.632276 0.729280 0
M  V30 21 C -3.281725 2.443267 2.178486 0
M  V30 22 C -1.506192 2.921034 0.572237 0
M  V30 23 C 1.492409 -3.687269 -0.247369 0
M  V30 24 O 1.965465 -3.259378 -1.489061 0
M  V30 25 C 2.515387 -4.115783 -2.451328 0
M  V30 26 C 1.479292 -4.967802 0.237911 0
M  V30 27 C 0.969389 -5.222291 1.502852 0
M  V30 28 Cl 1.023531 -6.914186 1.979454 0
M  V30 29 H 0.127951 -2.722161 4.370313 0
M  V30 30 H -1.530666 -3.308177 4.025480 0
M  V30 31 H -0.619455 -3.998031 5.416643 0
M  V30 32 H 0.096652 -2.133081 2.415312 0
M  V30 33 H 0.042044 -1.111976 -0.397770 0
M  V30 34 H 2.636984 1.699457 -0.075681 0
M  V30 35 H 0.907697 -0.001125 -1.963668 0
M  V30 36 H 2.518022 0.706961 -2.231097 0
M  V30 37 H -0.979137 3.187505 -2.107777 0
M  V30 38 H -1.003106 2.098935 3.392524 0
M  V30 39 H -1.175151 0.429396 2.744566 0
M  V30 40 H -1.952558 0.502214 -0.211702 0
M  V30 41 H -2.439657 -0.219939 1.433843 0
M  V30 42 H -3.592049 0.760341 0.467563 0
M  V30 43 H -3.638299 1.781200 2.993306 0
M  V30 44 H -3.112105 3.478864 2.540974 0
M  V30 45 H -4.100202 2.473911 1.429357 0
M  V30 46 H -2.277049 3.363621 -0.066725 0
M  V30 47 H -1.117071 3.726999 1.243199 0
M  V30 48 H 3.281792 -3.522188 -2.995803 0
M  V30 49 H 3.023553 -4.954475 -1.965976 0
M  V30 50 H 1.796254 -4.464001 -3.212574 0
M  V30 51 H 1.889152 -5.720947 -0.438504 0
M  V30 END ATOM
M  V30 BEGIN BOND
M  V30 1 1 1 2
M  V30 2 1 2 3
M  V30 3 2 3 4
M  V30 4 1 4 5
M  V30 5 1 5 6
M  V30 6 1 6 7
M  V30 7 2 7 8
M  V30 8 1 7 9
M  V30 9 1 9 10
M  V30 10 1 10 11
M  V30 11 2 11 12
M  V30 12 1 11 13
M  V30 13 1 13 14
M  V30 14 2 14 15
M  V30 15 1 15 16
M  V30 16 2 16 17
M  V30 17 1 16 18
M  V30 18 1 18 19
M  V30 19 1 19 20
M  V30 20 1 19 21
M  V30 21 1 19 22
M  V30 22 2 5 23
M  V30 23 1 23 24
M  V30 24 1 24 25
M  V30 25 1 23 26
M  V30 26 2 26 27
M  V30 27 1 27 28
M  V30 28 1 27 3
M  V30 29 1 15 9
M  V30 30 1 22 14
M  V30 31 1 1 29
M  V30 32 1 1 30
M  V30 33 1 1 31
M  V30 34 1 4 32
M  V30 35 1 6 33
M  V30 36 1 9 34
M  V30 37 1 10 35
M  V30 38 1 10 36
M  V30 39 1 13 37
M  V30 40 1 18 38
M  V30 41 1 18 39
M  V30 42 1 20 40
M  V30 43 1 20 41
M  V30 44 1 20 42
M  V30 45 1 21 43
M  V30 46 1 21 44
M  V30 47 1 21 45
M  V30 48 1 22 46
M  V30 49 1 22 47
M  V30 50 1 25 48
M  V30 51 1 25 49
M  V30 52 1 25 50
M  V30 53 1 26 51
M  V30 END BOND
M  V30 END CTAB
M  END
>  <Dataset>  (675) 
ChEMBL_Kinases

>  <Ligand_Instance>  (675) 
nan

>  <PDB_ID>  (675) 
nan

>  <Standardized_SMILES>  (675) 
COc1cc(NC(=O)C2CC(=O)NC3=C2C(=O)CC(C)(C)C3)c(OC)cc1Cl

>  <Name>  (675) 
nan

>  <Pocket>  (675) 
nan

>  <ATP_Site>  (675) 
nan

>  <Peripheral>  (675) 
nan

>  <Num_H_Atoms_ProtBoundConf>  (675) 
nan

>  <Num_Resolved_Atoms>  (675) 
nan

>  <Num_Not_Resolved_Atoms>  (675) 
nan

$$$$
CHEMBL1438039
     RDKit          3D

  0  0  0  0  0  0  0  0  0  0999 V3000
M  V30 BEGIN CTAB
M  V30 COUNTS 43 45 0 0 0
M  V30 BEGIN ATOM
M  V30 1 C 4.447315 -5.350001 2.095049 0
M  V30 2 O 3.154501 -4.995692 1.665261 0
M  V30 3 C 2.816250 -3.845016 1.003920 0
M  V30 4 C 3.772499 -2.876389 0.683287 0
M  V30 5 C 3.375638 -1.731985 0.014059 0
M  V30 6 C 2.065756 -1.512312 -0.349084 0
M  V30 7 C 1.679002 -0.302800 -1.050112 0
M  V30 8 O 2.556753 0.555519 -1.328378 0
M  V30 9 O 0.351932 -0.102545 -1.406475 0
M  V30 10 C -0.113330 1.025314 -2.080066 0
M  V30 11 C 0.110153 2.329266 -1.348824 0
M  V30 12 N -0.546073 2.366234 -0.066044 0
M  V30 13 C -0.151554 2.005905 1.243663 0
M  V30 14 O 0.970293 1.544960 1.514048 0
M  V30 15 C -1.215907 2.243839 2.210278 0
M  V30 16 C -1.351556 2.071990 3.572311 0
M  V30 17 C -2.534276 2.404677 4.227975 0
M  V30 18 C -3.593348 2.912738 3.527362 0
M  V30 19 C -3.449783 3.082727 2.158693 0
M  V30 20 C -2.282007 2.754902 1.507258 0
M  V30 21 C -1.895645 2.841183 0.098282 0
M  V30 22 O -2.647077 3.269623 -0.815149 0
M  V30 23 C 1.185552 -2.492598 -0.007935 0
M  V30 24 C 1.489600 -3.671815 0.661697 0
M  V30 25 O 0.558628 -4.637524 0.985623 0
M  V30 26 C -0.801747 -4.466098 0.637926 0
M  V30 27 H 5.233315 -4.922873 1.451031 0
M  V30 28 H 4.554486 -6.462536 2.119030 0
M  V30 29 H 4.568127 -4.983581 3.145862 0
M  V30 30 H 4.797740 -2.996410 0.940581 0
M  V30 31 H 4.131625 -1.000497 -0.221643 0
M  V30 32 H 0.257413 1.104268 -3.111967 0
M  V30 33 H -1.232995 0.913904 -2.145960 0
M  V30 34 H -0.238839 3.171025 -1.945553 0
M  V30 35 H 1.202949 2.458963 -1.142149 0
M  V30 36 H -0.488831 1.664562 4.103600 0
M  V30 37 H -2.609679 2.256952 5.304902 0
M  V30 38 H -4.510080 3.171841 4.027982 0
M  V30 39 H -4.285684 3.486612 1.588003 0
M  V30 40 H 0.135935 -2.346356 -0.283483 0
M  V30 41 H -0.959544 -4.694713 -0.440897 0
M  V30 42 H -1.427104 -5.169973 1.237992 0
M  V30 43 H -1.105434 -3.454670 0.906834 0
M  V30 END ATOM
M  V30 BEGIN BOND
M  V30 1 1 1 2
M  V30 2 1 2 3
M  V30 3 2 3 4
M  V30 4 1 4 5
M  V30 5 2 5 6
M  V30 6 1 6 7
M  V30 7 2 7 8
M  V30 8 1 7 9
M  V30 9 1 9 10
M  V30 10 1 10 11
M  V30 11 1 11 12
M  V30 12 1 12 13
M  V30 13 2 13 14
M  V30 14 1 13 15
M  V30 15 2 15 16
M  V30 16 1 16 17
M  V30 17 2 17 18
M  V30 18 1 18 19
M  V30 19 2 19 20
M  V30 20 1 20 21
M  V30 21 2 21 22
M  V30 22 1 6 23
M  V30 23 2 23 24
M  V30 24 1 24 25
M  V30 25 1 25 26
M  V30 26 1 24 3
M  V30 27 1 21 12
M  V30 28 1 20 15
M  V30 29 1 1 27
M  V30 30 1 1 28
M  V30 31 1 1 29
M  V30 32 1 4 30
M  V30 33 1 5 31
M  V30 34 1 10 32
M  V30 35 1 10 33
M  V30 36 1 11 34
M  V30 37 1 11 35
M  V30 38 1 16 36
M  V30 39 1 17 37
M  V30 40 1 18 38
M  V30 41 1 19 39
M  V30 42 1 23 40
M  V30 43 1 26 41
M  V30 44 1 26 42
M  V30 45 1 26 43
M  V30 END BOND
M  V30 END CTAB
M  END
>  <Dataset>  (676) 
ChEMBL_Kinases

>  <Ligand_Instance>  (676) 
nan

>  <PDB_ID>  (676) 
nan

>  <Standardized_SMILES>  (676) 
COc1ccc(C(=O)OCCN2C(=O)c3ccccc3C2=O)cc1OC

>  <Name>  (676) 
nan

>  <Pocket>  (676) 
nan

>  <ATP_Site>  (676) 
nan

>  <Peripheral>  (676) 
nan

>  <Num_H_Atoms_ProtBoundConf>  (676) 
nan

>  <Num_Resolved_Atoms>  (676) 
nan

>  <Num_Not_Resolved_Atoms>  (676) 
nan

$$$$
CHEMBL1437997
     RDKit          3D

  0  0  0  0  0  0  0  0  0  0999 V3000
M  V30 BEGIN CTAB
M  V30 COUNTS 48 52 0 0 0
M  V30 BEGIN ATOM
M  V30 1 C 1.633973 -6.629182 0.610897 0
M  V30 2 C 2.269279 -5.597571 -0.260869 0
M  V30 3 N 2.117037 -4.250865 0.256129 0
M  V30 4 C 2.958698 -3.591014 1.100984 0
M  V30 5 C 4.202286 -4.236705 1.609091 0
M  V30 6 N 2.482653 -2.351586 1.359766 0
M  V30 7 C 1.332031 -2.214224 0.679581 0
M  V30 8 C 0.404005 -1.187568 0.549313 0
M  V30 9 C -0.690218 -1.401565 -0.254964 0
M  V30 10 C -1.653233 -0.312365 -0.379177 0
M  V30 11 N -2.798846 -0.224679 -1.078837 0
M  V30 12 N -3.356314 0.978257 -0.889267 0
M  V30 13 C -2.536949 1.642605 -0.056715 0
M  V30 14 C -2.725348 2.999631 0.441538 0
M  V30 15 C -1.880632 3.675693 1.295232 0
M  V30 16 C -0.620918 3.204841 1.892593 0
M  V30 17 C 0.459313 3.975743 1.517461 0
M  V30 18 C 1.715704 3.645520 2.007955 0
M  V30 19 C 1.806025 2.552803 2.850742 0
M  V30 20 C 0.738955 1.780318 3.229584 0
M  V30 21 C -0.508390 2.119884 2.733775 0
M  V30 22 N -2.445325 4.882000 1.482018 0
M  V30 23 O -3.552421 4.992117 0.818183 0
M  V30 24 C -3.767061 3.856935 0.161177 0
M  V30 25 C -4.944549 3.581633 -0.724144 0
M  V30 26 O -1.537011 0.854903 0.229108 0
M  V30 27 C -0.942057 -2.573576 -0.952927 0
M  V30 28 C 0.004639 -3.563332 -0.793759 0
M  V30 29 C 1.122393 -3.404685 0.000432 0
M  V30 30 H 2.393342 -7.248888 1.172659 0
M  V30 31 H 1.150443 -7.384488 -0.074091 0
M  V30 32 H 0.939146 -6.254189 1.367165 0
M  V30 33 H 1.919576 -5.667138 -1.315838 0
M  V30 34 H 3.362940 -5.819413 -0.308383 0
M  V30 35 H 3.925580 -4.993051 2.380066 0
M  V30 36 H 4.753534 -4.680044 0.765113 0
M  V30 37 H 4.845878 -3.441544 2.047604 0
M  V30 38 H 0.564648 -0.273475 1.070586 0
M  V30 39 H 0.425944 4.835184 0.861796 0
M  V30 40 H 2.582230 4.229831 1.732716 0
M  V30 41 H 2.796374 2.320010 3.216611 0
M  V30 42 H 0.835921 0.930687 3.889972 0
M  V30 43 H -1.411993 1.574383 2.972470 0
M  V30 44 H -5.787829 4.204883 -0.369127 0
M  V30 45 H -4.663707 3.935602 -1.750759 0
M  V30 46 H -5.192917 2.512715 -0.713296 0
M  V30 47 H -1.834448 -2.647045 -1.562696 0
M  V30 48 H -0.148360 -4.505196 -1.322745 0
M  V30 END ATOM
M  V30 BEGIN BOND
M  V30 1 1 1 2
M  V30 2 1 2 3
M  V30 3 1 3 4
M  V30 4 1 4 5
M  V30 5 2 4 6
M  V30 6 1 6 7
M  V30 7 2 7 8
M  V30 8 1 8 9
M  V30 9 1 9 10
M  V30 10 2 10 11
M  V30 11 1 11 12
M  V30 12 2 12 13
M  V30 13 1 13 14
M  V30 14 1 14 15
M  V30 15 1 15 16
M  V30 16 2 16 17
M  V30 17 1 17 18
M  V30 18 2 18 19
M  V30 19 1 19 20
M  V30 20 2 20 21
M  V30 21 2 15 22
M  V30 22 1 22 23
M  V30 23 1 23 24
M  V30 24 1 24 25
M  V30 25 1 13 26
M  V30 26 2 9 27
M  V30 27 1 27 28
M  V30 28 2 28 29
M  V30 29 1 29 3
M  V30 30 1 29 7
M  V30 31 1 26 10
M  V30 32 2 24 14
M  V30 33 1 21 16
M  V30 34 1 1 30
M  V30 35 1 1 31
M  V30 36 1 1 32
M  V30 37 1 2 33
M  V30 38 1 2 34
M  V30 39 1 5 35
M  V30 40 1 5 36
M  V30 41 1 5 37
M  V30 42 1 8 38
M  V30 43 1 17 39
M  V30 44 1 18 40
M  V30 45 1 19 41
M  V30 46 1 20 42
M  V30 47 1 21 43
M  V30 48 1 25 44
M  V30 49 1 25 45
M  V30 50 1 25 46
M  V30 51 1 27 47
M  V30 52 1 28 48
M  V30 END BOND
M  V30 END CTAB
M  END
>  <Dataset>  (677) 
ChEMBL_Kinases

>  <Ligand_Instance>  (677) 
nan

>  <PDB_ID>  (677) 
nan

>  <Standardized_SMILES>  (677) 
CCn1c(C)nc2cc(-c3nnc(-c4c(-c5ccccc5)noc4C)o3)ccc21

>  <Name>  (677) 
nan

>  <Pocket>  (677) 
nan

>  <ATP_Site>  (677) 
nan

>  <Peripheral>  (677) 
nan

>  <Num_H_Atoms_ProtBoundConf>  (677) 
nan

>  <Num_Resolved_Atoms>  (677) 
nan

>  <Num_Not_Resolved_Atoms>  (677) 
nan

$$$$
CHEMBL1437981
     RDKit          3D

  0  0  0  0  0  0  0  0  0  0999 V3000
M  V30 BEGIN CTAB
M  V30 COUNTS 43 46 0 0 0
M  V30 BEGIN ATOM
M  V30 1 C -0.989653 -1.288043 4.049772 0
M  V30 2 C -0.714189 -0.649257 2.692996 0
M  V30 3 N 0.551257 -1.072568 2.159422 0
M  V30 4 C 1.790261 -0.545182 2.292842 0
M  V30 5 S 2.025890 0.933873 3.280049 0
M  V30 6 C 1.809104 2.340251 2.125514 0
M  V30 7 C 2.902734 2.318030 1.142857 0
M  V30 8 O 3.460394 1.302413 1.607401 0
M  V30 9 C 3.079783 3.266145 0.068037 0
M  V30 10 C 4.138428 3.156905 -0.801969 0
M  V30 11 C 4.306826 4.078972 -1.842768 0
M  V30 12 C 3.322865 5.066761 -1.886167 0
M  V30 13 C 2.257436 5.188732 -1.022063 0
M  V30 14 C 2.136056 4.254570 -0.012639 0
M  V30 15 N 2.684434 -1.267811 1.619543 0
M  V30 16 N 1.997426 -2.270065 1.050603 0
M  V30 17 C 0.686278 -2.151546 1.381368 0
M  V30 18 C -0.355449 -3.081402 0.932762 0
M  V30 19 C -0.272571 -3.958159 -0.128862 0
M  V30 20 C -1.523324 -4.585022 -0.103051 0
M  V30 21 C -2.017324 -5.573420 -0.947302 0
M  V30 22 C -3.307671 -6.050778 -0.725203 0
M  V30 23 Br -4.071092 -7.410695 -1.836280 0
M  V30 24 C -4.094224 -5.562158 0.309909 0
M  V30 25 C -3.552243 -4.573962 1.125163 0
M  V30 26 C -2.275117 -4.075997 0.934803 0
M  V30 27 O -1.535781 -3.170478 1.536915 0
M  V30 28 H -0.152591 -2.008184 4.280595 0
M  V30 29 H -0.993661 -0.571097 4.869103 0
M  V30 30 H -1.921775 -1.890033 4.032372 0
M  V30 31 H -1.550406 -0.891199 2.038162 0
M  V30 32 H -0.636108 0.455995 2.893108 0
M  V30 33 H 0.851166 2.310153 1.602091 0
M  V30 34 H 1.827047 3.260794 2.776305 0
M  V30 35 H 4.881694 2.374378 -0.732945 0
M  V30 36 H 5.102533 4.060798 -2.560300 0
M  V30 37 H 3.443320 5.798069 -2.700944 0
M  V30 38 H 1.549562 5.998762 -1.147322 0
M  V30 39 H 1.308306 4.333144 0.675824 0
M  V30 40 H 0.546297 -4.109162 -0.792983 0
M  V30 41 H -1.436219 -5.976849 -1.759424 0
M  V30 42 H -5.113785 -5.945906 0.480046 0
M  V30 43 H -4.170945 -4.199152 1.931446 0
M  V30 END ATOM
M  V30 BEGIN BOND
M  V30 1 1 1 2
M  V30 2 1 2 3
M  V30 3 1 3 4
M  V30 4 1 4 5
M  V30 5 1 5 6
M  V30 6 1 6 7
M  V30 7 2 7 8
M  V30 8 1 7 9
M  V30 9 2 9 10
M  V30 10 1 10 11
M  V30 11 2 11 12
M  V30 12 1 12 13
M  V30 13 2 13 14
M  V30 14 2 4 15
M  V30 15 1 15 16
M  V30 16 2 16 17
M  V30 17 1 17 18
M  V30 18 2 18 19
M  V30 19 1 19 20
M  V30 20 2 20 21
M  V30 21 1 21 22
M  V30 22 1 22 23
M  V30 23 2 22 24
M  V30 24 1 24 25
M  V30 25 2 25 26
M  V30 26 1 26 27
M  V30 27 1 17 3
M  V30 28 1 27 18
M  V30 29 1 14 9
M  V30 30 1 26 20
M  V30 31 1 1 28
M  V30 32 1 1 29
M  V30 33 1 1 30
M  V30 34 1 2 31
M  V30 35 1 2 32
M  V30 36 1 6 33
M  V30 37 1 6 34
M  V30 38 1 10 35
M  V30 39 1 11 36
M  V30 40 1 12 37
M  V30 41 1 13 38
M  V30 42 1 14 39
M  V30 43 1 19 40
M  V30 44 1 21 41
M  V30 45 1 24 42
M  V30 46 1 25 43
M  V30 END BOND
M  V30 END CTAB
M  END
>  <Dataset>  (678) 
ChEMBL_Kinases

>  <Ligand_Instance>  (678) 
nan

>  <PDB_ID>  (678) 
nan

>  <Standardized_SMILES>  (678) 
CCn1c(SCC(=O)c2ccccc2)nnc1-c1cc2cc(Br)ccc2o1

>  <Name>  (678) 
nan

>  <Pocket>  (678) 
nan

>  <ATP_Site>  (678) 
nan

>  <Peripheral>  (678) 
nan

>  <Num_H_Atoms_ProtBoundConf>  (678) 
nan

>  <Num_Resolved_Atoms>  (678) 
nan

>  <Num_Not_Resolved_Atoms>  (678) 
nan

$$$$
CHEMBL1437960
     RDKit          3D

  0  0  0  0  0  0  0  0  0  0999 V3000
M  V30 BEGIN CTAB
M  V30 COUNTS 33 34 0 0 0
M  V30 BEGIN ATOM
M  V30 1 C -1.457407 -3.131262 1.302837 0
M  V30 2 O -0.808608 -1.958625 0.937374 0
M  V30 3 C 0.532960 -1.745735 0.770012 0
M  V30 4 C 1.368877 -2.818333 0.986314 0
M  V30 5 C 2.730303 -2.664212 0.832945 0
M  V30 6 S 3.817469 -4.052605 1.112504 0
M  V30 7 C 2.783999 -5.477058 1.576726 0
M  V30 8 C 3.178094 -1.413640 0.463346 0
M  V30 9 C 2.319435 -0.358849 0.253660 0
M  V30 10 C 0.956479 -0.492696 0.401760 0
M  V30 11 C 0.141833 0.682564 0.156378 0
M  V30 12 O 0.682301 1.770871 -0.177680 0
M  V30 13 N -1.262247 0.850442 0.227572 0
M  V30 14 C -1.831073 2.124643 -0.064391 0
M  V30 15 C -1.999675 3.027784 0.965758 0
M  V30 16 C -2.555092 4.244940 0.623233 0
M  V30 17 N -2.942449 4.618559 -0.625636 0
M  V30 18 C -2.773117 3.722159 -1.637612 0
M  V30 19 C -2.214505 2.472051 -1.348264 0
M  V30 20 H -1.545736 -3.755376 0.380447 0
M  V30 21 H -0.934305 -3.643449 2.121794 0
M  V30 22 H -2.513385 -2.852633 1.579993 0
M  V30 23 H 0.967517 -3.779879 1.275203 0
M  V30 24 H 2.410239 -5.357942 2.618166 0
M  V30 25 H 3.402166 -6.407377 1.519041 0
M  V30 26 H 1.929902 -5.561238 0.884129 0
M  V30 27 H 4.236519 -1.250669 0.332632 0
M  V30 28 H 2.757619 0.602427 -0.038198 0
M  V30 29 H -1.819501 0.013715 0.496091 0
M  V30 30 H -1.727436 2.836522 1.995056 0
M  V30 31 H -2.740659 5.048630 1.352571 0
M  V30 32 H -3.061573 3.951139 -2.672279 0
M  V30 33 H -2.087961 1.773066 -2.166374 0
M  V30 END ATOM
M  V30 BEGIN BOND
M  V30 1 1 1 2
M  V30 2 1 2 3
M  V30 3 2 3 4
M  V30 4 1 4 5
M  V30 5 1 5 6
M  V30 6 1 6 7
M  V30 7 2 5 8
M  V30 8 1 8 9
M  V30 9 2 9 10
M  V30 10 1 10 11
M  V30 11 2 11 12
M  V30 12 1 11 13
M  V30 13 1 13 14
M  V30 14 2 14 15
M  V30 15 1 15 16
M  V30 16 2 16 17
M  V30 17 1 17 18
M  V30 18 2 18 19
M  V30 19 1 10 3
M  V30 20 1 19 14
M  V30 21 1 1 20
M  V30 22 1 1 21
M  V30 23 1 1 22
M  V30 24 1 4 23
M  V30 25 1 7 24
M  V30 26 1 7 25
M  V30 27 1 7 26
M  V30 28 1 8 27
M  V30 29 1 9 28
M  V30 30 1 13 29
M  V30 31 1 15 30
M  V30 32 1 16 31
M  V30 33 1 18 32
M  V30 34 1 19 33
M  V30 END BOND
M  V30 END CTAB
M  END
>  <Dataset>  (679) 
ChEMBL_Kinases

>  <Ligand_Instance>  (679) 
nan

>  <PDB_ID>  (679) 
nan

>  <Standardized_SMILES>  (679) 
COc1cc(SC)ccc1C(=O)Nc1ccncc1

>  <Name>  (679) 
nan

>  <Pocket>  (679) 
nan

>  <ATP_Site>  (679) 
nan

>  <Peripheral>  (679) 
nan

>  <Num_H_Atoms_ProtBoundConf>  (679) 
nan

>  <Num_Resolved_Atoms>  (679) 
nan

>  <Num_Not_Resolved_Atoms>  (679) 
nan

$$$$
CHEMBL1437929
     RDKit          3D

  0  0  0  0  0  0  0  0  0  0999 V3000
M  V30 BEGIN CTAB
M  V30 COUNTS 38 40 0 0 0
M  V30 BEGIN ATOM
M  V30 1 N -3.010282 -3.669840 2.138314 0
M  V30 2 C -2.021644 -3.165449 1.791211 0
M  V30 3 C -0.799752 -2.515022 1.366555 0
M  V30 4 C -0.368368 -2.849313 0.114078 0
M  V30 5 N -1.072021 -3.767738 -0.704654 0
M  V30 6 N 0.755215 -2.305112 -0.381396 0
M  V30 7 C 1.459654 -1.429105 0.353499 0
M  V30 8 S 2.941153 -0.754281 -0.368036 0
M  V30 9 C 2.597642 0.753956 -1.312418 0
M  V30 10 C 1.752764 0.365645 -2.491141 0
M  V30 11 C 0.449795 1.072898 -2.608009 0
M  V30 12 C -0.255888 1.341033 -1.309731 0
M  V30 13 C 0.608299 2.182605 -0.400336 0
M  V30 14 C 2.017302 1.779210 -0.450816 0
M  V30 15 O 2.754680 2.378653 0.315614 0
M  V30 16 C 0.998568 -1.112032 1.613559 0
M  V30 17 C 1.819740 -0.174342 2.317889 0
M  V30 18 N 2.501608 0.578880 2.878610 0
M  V30 19 C -0.136931 -1.626933 2.182859 0
M  V30 20 C -0.628932 -1.303206 3.501444 0
M  V30 21 C -0.306648 -0.525379 4.573568 0
M  V30 22 C -1.203922 -0.633471 5.612672 0
M  V30 23 C -2.100113 -1.537351 5.093264 0
M  V30 24 O -1.730137 -1.882626 3.902611 0
M  V30 25 H -1.492014 -3.608185 -1.668260 0
M  V30 26 H -1.142287 -4.697990 -0.223768 0
M  V30 27 H 3.607738 1.134618 -1.639602 0
M  V30 28 H 2.332989 0.599436 -3.413176 0
M  V30 29 H 1.586886 -0.744841 -2.556576 0
M  V30 30 H 0.501583 2.008771 -3.211420 0
M  V30 31 H -0.245534 0.404109 -3.196648 0
M  V30 32 H -0.670242 0.443363 -0.836280 0
M  V30 33 H -1.140982 1.982144 -1.573825 0
M  V30 34 H 0.186753 2.116372 0.619124 0
M  V30 35 H 0.517731 3.266713 -0.700203 0
M  V30 36 H 0.563221 0.089385 4.563987 0
M  V30 37 H -1.160266 -0.117660 6.560239 0
M  V30 38 H -2.992638 -1.899048 5.629379 0
M  V30 END ATOM
M  V30 BEGIN BOND
M  V30 1 3 1 2
M  V30 2 1 2 3
M  V30 3 2 3 4
M  V30 4 1 4 5
M  V30 5 1 4 6
M  V30 6 2 6 7
M  V30 7 1 7 8
M  V30 8 1 8 9
M  V30 9 1 9 10
M  V30 10 1 10 11
M  V30 11 1 11 12
M  V30 12 1 12 13
M  V30 13 1 13 14
M  V30 14 2 14 15
M  V30 15 1 7 16
M  V30 16 1 16 17
M  V30 17 3 17 18
M  V30 18 2 16 19
M  V30 19 1 19 20
M  V30 20 2 20 21
M  V30 21 1 21 22
M  V30 22 2 22 23
M  V30 23 1 23 24
M  V30 24 1 19 3
M  V30 25 1 24 20
M  V30 26 1 14 9
M  V30 27 1 5 25
M  V30 28 1 5 26
M  V30 29 1 9 27
M  V30 30 1 10 28
M  V30 31 1 10 29
M  V30 32 1 11 30
M  V30 33 1 11 31
M  V30 34 1 12 32
M  V30 35 1 12 33
M  V30 36 1 13 34
M  V30 37 1 13 35
M  V30 38 1 21 36
M  V30 39 1 22 37
M  V30 40 1 23 38
M  V30 END BOND
M  V30 END CTAB
M  END
>  <Dataset>  (680) 
ChEMBL_Kinases

>  <Ligand_Instance>  (680) 
nan

>  <PDB_ID>  (680) 
nan

>  <Standardized_SMILES>  (680) 
N#Cc1c(N)nc(SC2CCCCC2=O)c(C#N)c1-c1ccco1

>  <Name>  (680) 
nan

>  <Pocket>  (680) 
nan

>  <ATP_Site>  (680) 
nan

>  <Peripheral>  (680) 
nan

>  <Num_H_Atoms_ProtBoundConf>  (680) 
nan

>  <Num_Resolved_Atoms>  (680) 
nan

>  <Num_Not_Resolved_Atoms>  (680) 
nan

$$$$
CHEMBL1437918
     RDKit          3D

  0  0  0  0  0  0  0  0  0  0999 V3000
M  V30 BEGIN CTAB
M  V30 COUNTS 24 25 0 0 0
M  V30 BEGIN ATOM
M  V30 1 C 0.122488 0.012048 4.432578 0
M  V30 2 C 0.901469 -0.378402 3.216888 0
M  V30 3 S 2.322956 -1.434899 3.184889 0
M  V30 4 C 2.536720 -1.303079 1.333769 0
M  V30 5 N 3.492392 -1.893731 0.570537 0
M  V30 6 C 3.461818 -1.662802 -0.734743 0
M  V30 7 N 2.493491 -0.871583 -1.172713 0
M  V30 8 C 1.551904 -0.288985 -0.424536 0
M  V30 9 S 0.392162 0.720736 -1.313290 0
M  V30 10 C -1.030927 -0.175228 -1.920289 0
M  V30 11 C -1.913446 0.782923 -2.623036 0
M  V30 12 N -2.604351 1.537810 -3.170086 0
M  V30 13 C 1.506220 -0.470752 0.933427 0
M  V30 14 C 0.650786 0.019429 1.879936 0
M  V30 15 C -0.480742 0.929616 1.538546 0
M  V30 16 H -0.205276 1.069235 4.351415 0
M  V30 17 H 0.814325 -0.138106 5.286018 0
M  V30 18 H -0.781447 -0.573590 4.592462 0
M  V30 19 H 4.236961 -2.150492 -1.297235 0
M  V30 20 H -1.580060 -0.701048 -1.128987 0
M  V30 21 H -0.762458 -0.920870 -2.708971 0
M  V30 22 H -0.946789 1.260067 2.463901 0
M  V30 23 H -1.249793 0.434244 0.929596 0
M  V30 24 H -0.076266 1.789205 0.933938 0
M  V30 END ATOM
M  V30 BEGIN BOND
M  V30 1 1 1 2
M  V30 2 1 2 3
M  V30 3 1 3 4
M  V30 4 2 4 5
M  V30 5 1 5 6
M  V30 6 2 6 7
M  V30 7 1 7 8
M  V30 8 1 8 9
M  V30 9 1 9 10
M  V30 10 1 10 11
M  V30 11 3 11 12
M  V30 12 2 8 13
M  V30 13 1 13 14
M  V30 14 1 14 15
M  V30 15 2 14 2
M  V30 16 1 13 4
M  V30 17 1 1 16
M  V30 18 1 1 17
M  V30 19 1 1 18
M  V30 20 1 6 19
M  V30 21 1 10 20
M  V30 22 1 10 21
M  V30 23 1 15 22
M  V30 24 1 15 23
M  V30 25 1 15 24
M  V30 END BOND
M  V30 END CTAB
M  END
>  <Dataset>  (681) 
ChEMBL_Kinases

>  <Ligand_Instance>  (681) 
nan

>  <PDB_ID>  (681) 
nan

>  <Standardized_SMILES>  (681) 
Cc1sc2ncnc(SCC#N)c2c1C

>  <Name>  (681) 
nan

>  <Pocket>  (681) 
nan

>  <ATP_Site>  (681) 
nan

>  <Peripheral>  (681) 
nan

>  <Num_H_Atoms_ProtBoundConf>  (681) 
nan

>  <Num_Resolved_Atoms>  (681) 
nan

>  <Num_Not_Resolved_Atoms>  (681) 
nan

$$$$
CHEMBL1437894
     RDKit          3D

  0  0  0  0  0  0  0  0  0  0999 V3000
M  V30 BEGIN CTAB
M  V30 COUNTS 35 35 0 0 0
M  V30 BEGIN ATOM
M  V30 1 C -2.146752 -3.644778 3.734109 0
M  V30 2 C -0.912909 -3.624167 2.819758 0
M  V30 3 C -1.230144 -2.965509 1.536029 0
M  V30 4 C -0.151844 -2.857746 0.526506 0
M  V30 5 C 1.069136 -2.108324 0.908189 0
M  V30 6 C 0.851444 -0.692385 1.274197 0
M  V30 7 O 0.500622 -0.636346 2.488249 0
M  V30 8 C 1.005506 0.482489 0.404935 0
M  V30 9 C -0.141297 0.858577 -0.285650 0
M  V30 10 O -1.331579 0.201901 -0.177780 0
M  V30 11 C 0.029338 1.974519 -1.105672 0
M  V30 12 C 1.248776 2.625916 -1.199162 0
M  V30 13 O 1.461656 3.738883 -2.002477 0
M  V30 14 C 0.359836 4.215215 -2.756755 0
M  V30 15 C 2.352393 2.202956 -0.486578 0
M  V30 16 Cl 3.910398 2.974494 -0.558434 0
M  V30 17 C 2.238921 1.099395 0.343328 0
M  V30 18 O 3.297176 0.620534 1.084059 0
M  V30 19 H -2.438469 -2.641516 4.070433 0
M  V30 20 H -1.955974 -4.241296 4.643692 0
M  V30 21 H -2.967290 -4.130125 3.161066 0
M  V30 22 H -0.651500 -4.700704 2.666298 0
M  V30 23 H -0.089161 -3.183317 3.388294 0
M  V30 24 H -1.584790 -1.921042 1.779126 0
M  V30 25 H -2.109767 -3.444183 1.060295 0
M  V30 26 H 0.189143 -3.881244 0.227535 0
M  V30 27 H -0.538262 -2.415764 -0.414242 0
M  V30 28 H 1.695264 -2.059736 -0.031487 0
M  V30 29 H 1.749351 -2.643332 1.620468 0
M  V30 30 H -2.245716 0.607219 -0.058532 0
M  V30 31 H -0.810752 2.342209 -1.683654 0
M  V30 32 H 0.592541 5.110489 -3.340615 0
M  V30 33 H 0.110030 3.383093 -3.474019 0
M  V30 34 H -0.522973 4.318496 -2.106747 0
M  V30 35 H 3.061813 0.163673 1.974530 0
M  V30 END ATOM
M  V30 BEGIN BOND
M  V30 1 1 1 2
M  V30 2 1 2 3
M  V30 3 1 3 4
M  V30 4 1 4 5
M  V30 5 1 5 6
M  V30 6 2 6 7
M  V30 7 1 6 8
M  V30 8 2 8 9
M  V30 9 1 9 10
M  V30 10 1 9 11
M  V30 11 2 11 12
M  V30 12 1 12 13
M  V30 13 1 13 14
M  V30 14 1 12 15
M  V30 15 1 15 16
M  V30 16 2 15 17
M  V30 17 1 17 18
M  V30 18 1 17 8
M  V30 19 1 1 19
M  V30 20 1 1 20
M  V30 21 1 1 21
M  V30 22 1 2 22
M  V30 23 1 2 23
M  V30 24 1 3 24
M  V30 25 1 3 25
M  V30 26 1 4 26
M  V30 27 1 4 27
M  V30 28 1 5 28
M  V30 29 1 5 29
M  V30 30 1 10 30
M  V30 31 1 11 31
M  V30 32 1 14 32
M  V30 33 1 14 33
M  V30 34 1 14 34
M  V30 35 1 18 35
M  V30 END BOND
M  V30 END CTAB
M  END
>  <Dataset>  (682) 
ChEMBL_Kinases

>  <Ligand_Instance>  (682) 
nan

>  <PDB_ID>  (682) 
nan

>  <Standardized_SMILES>  (682) 
CCCCCC(=O)c1c(O)cc(OC)c(Cl)c1O

>  <Name>  (682) 
nan

>  <Pocket>  (682) 
nan

>  <ATP_Site>  (682) 
nan

>  <Peripheral>  (682) 
nan

>  <Num_H_Atoms_ProtBoundConf>  (682) 
nan

>  <Num_Resolved_Atoms>  (682) 
nan

>  <Num_Not_Resolved_Atoms>  (682) 
nan

$$$$
CHEMBL1437831
     RDKit          3D

  0  0  0  0  0  0  0  0  0  0999 V3000
M  V30 BEGIN CTAB
M  V30 COUNTS 68 69 0 0 0
M  V30 BEGIN ATOM
M  V30 1 C 0.958987 -2.267752 3.531190 0
M  V30 2 C 2.086427 -2.744975 4.040478 0
M  V30 3 C 3.378272 -2.058010 3.789316 0
M  V30 4 C 3.219926 -0.857229 2.948833 0
M  V30 5 C 2.986688 0.401961 3.470995 0
M  V30 6 C 2.850290 1.474546 2.581727 0
M  V30 7 C 2.936023 1.343327 1.207584 0
M  V30 8 N 2.792779 2.456276 0.337430 0 CHG=1 VAL=4
M  V30 9 C 1.948942 3.462742 0.943418 0
M  V30 10 C 4.096894 3.058670 0.096736 0
M  V30 11 C 2.264681 2.097665 -0.946617 0
M  V30 12 C 0.898748 1.453952 -0.895202 0
M  V30 13 C 0.418955 1.106774 -2.278729 0
M  V30 14 O 1.032733 1.308249 -3.315778 0
M  V30 15 C -0.932068 0.467345 -2.259104 0
M  V30 16 C -0.711301 -1.000235 -2.372397 0
M  V30 17 N -1.864451 -1.827061 -2.375595 0 CHG=1 VAL=4
M  V30 18 C -2.987243 -1.281244 -3.110602 0
M  V30 19 C -1.477676 -3.065418 -3.067080 0
M  V30 20 C -2.346578 -2.221356 -1.112773 0
M  V30 21 C -1.922294 -1.709594 0.096871 0
M  V30 22 C -2.409430 -2.111760 1.323632 0
M  V30 23 C -3.382911 -3.086225 1.364110 0
M  V30 24 C -3.968667 -3.586001 2.622330 0
M  V30 25 C -5.170424 -2.772174 3.009852 0
M  V30 26 C -5.477622 -1.784488 2.176855 0
M  V30 27 C -3.827828 -3.618920 0.149024 0
M  V30 28 C -3.323035 -3.199553 -1.084069 0
M  V30 29 C 3.170099 0.074809 0.700215 0
M  V30 30 C 3.309082 -1.004262 1.559570 0
M  V30 31 H 0.757506 -1.405219 2.913861 0
M  V30 32 H -0.004483 -2.707026 3.668739 0
M  V30 33 H 2.001164 -3.635440 4.629983 0
M  V30 34 H 4.006794 -2.816566 3.237833 0
M  V30 35 H 3.869112 -1.846879 4.763241 0
M  V30 36 H 2.916918 0.522721 4.533761 0
M  V30 37 H 2.669030 2.441541 3.042531 0
M  V30 38 H 1.384348 4.072929 0.222046 0
M  V30 39 H 1.245044 2.918562 1.638503 0
M  V30 40 H 2.548670 4.114432 1.635561 0
M  V30 41 H 4.238032 3.331927 -0.972854 0
M  V30 42 H 4.225309 3.995985 0.677659 0
M  V30 43 H 4.917351 2.375833 0.457060 0
M  V30 44 H 2.974333 1.528968 -1.571702 0
M  V30 45 H 2.123087 3.076019 -1.493559 0
M  V30 46 H 0.922315 0.583121 -0.232948 0
M  V30 47 H 0.152651 2.179655 -0.511882 0
M  V30 48 H -1.414504 0.808277 -3.221813 0
M  V30 49 H -1.588636 0.813231 -1.467733 0
M  V30 50 H -0.015513 -1.362555 -1.596586 0
M  V30 51 H -0.160280 -1.161963 -3.344504 0
M  V30 52 H -3.574562 -2.149157 -3.494294 0
M  V30 53 H -3.685139 -0.739617 -2.432528 0
M  V30 54 H -2.662708 -0.700249 -3.978262 0
M  V30 55 H -0.753703 -3.637805 -2.423145 0
M  V30 56 H -0.905979 -2.735757 -3.980794 0
M  V30 57 H -2.332335 -3.658702 -3.400270 0
M  V30 58 H -1.174051 -0.957824 0.096653 0
M  V30 59 H -2.045173 -1.681007 2.246313 0
M  V30 60 H -4.249160 -4.660623 2.552256 0
M  V30 61 H -3.248935 -3.526630 3.468932 0
M  V30 62 H -5.688757 -3.042295 3.919284 0
M  V30 63 H -4.836127 -1.677485 1.323510 0
M  V30 64 H -6.349607 -1.155654 2.413490 0
M  V30 65 H -4.605484 -4.397333 0.202572 0
M  V30 66 H -3.762392 -3.701599 -1.940951 0
M  V30 67 H 3.249148 -0.108387 -0.344194 0
M  V30 68 H 3.491490 -1.988354 1.166780 0
M  V30 END ATOM
M  V30 BEGIN BOND
M  V30 1 2 1 2
M  V30 2 1 2 3
M  V30 3 1 3 4
M  V30 4 2 4 5
M  V30 5 1 5 6
M  V30 6 2 6 7
M  V30 7 1 7 8
M  V30 8 1 8 9
M  V30 9 1 8 10
M  V30 10 1 8 11
M  V30 11 1 11 12
M  V30 12 1 12 13
M  V30 13 2 13 14
M  V30 14 1 13 15
M  V30 15 1 15 16
M  V30 16 1 16 17
M  V30 17 1 17 18
M  V30 18 1 17 19
M  V30 19 1 17 20
M  V30 20 2 20 21
M  V30 21 1 21 22
M  V30 22 2 22 23
M  V30 23 1 23 24
M  V30 24 1 24 25
M  V30 25 2 25 26
M  V30 26 1 23 27
M  V30 27 2 27 28
M  V30 28 1 7 29
M  V30 29 2 29 30
M  V30 30 1 30 4
M  V30 31 1 28 20
M  V30 32 1 1 31
M  V30 33 1 1 32
M  V30 34 1 2 33
M  V30 35 1 3 34
M  V30 36 1 3 35
M  V30 37 1 5 36
M  V30 38 1 6 37
M  V30 39 1 9 38
M  V30 40 1 9 39
M  V30 41 1 9 40
M  V30 42 1 10 41
M  V30 43 1 10 42
M  V30 44 1 10 43
M  V30 45 1 11 44
M  V30 46 1 11 45
M  V30 47 1 12 46
M  V30 48 1 12 47
M  V30 49 1 15 48
M  V30 50 1 15 49
M  V30 51 1 16 50
M  V30 52 1 16 51
M  V30 53 1 18 52
M  V30 54 1 18 53
M  V30 55 1 18 54
M  V30 56 1 19 55
M  V30 57 1 19 56
M  V30 58 1 19 57
M  V30 59 1 21 58
M  V30 60 1 22 59
M  V30 61 1 24 60
M  V30 62 1 24 61
M  V30 63 1 25 62
M  V30 64 1 26 63
M  V30 65 1 26 64
M  V30 66 1 27 65
M  V30 67 1 28 66
M  V30 68 1 29 67
M  V30 69 1 30 68
M  V30 END BOND
M  V30 END CTAB
M  END
>  <Dataset>  (683) 
ChEMBL_Kinases

>  <Ligand_Instance>  (683) 
nan

>  <PDB_ID>  (683) 
nan

>  <Standardized_SMILES>  (683) 
C=CCc1ccc([N+](C)(C)CCC(=O)CC[N+](C)(C)c2ccc(CC=C)cc2)cc1

>  <Name>  (683) 
nan

>  <Pocket>  (683) 
nan

>  <ATP_Site>  (683) 
nan

>  <Peripheral>  (683) 
nan

>  <Num_H_Atoms_ProtBoundConf>  (683) 
nan

>  <Num_Resolved_Atoms>  (683) 
nan

>  <Num_Not_Resolved_Atoms>  (683) 
nan

$$$$
CHEMBL1437747
     RDKit          3D

  0  0  0  0  0  0  0  0  0  0999 V3000
M  V30 BEGIN CTAB
M  V30 COUNTS 40 43 0 0 0
M  V30 BEGIN ATOM
M  V30 1 C -0.110195 -4.572428 2.044088 0
M  V30 2 C -0.189694 -4.049003 3.453777 0
M  V30 3 N 0.958455 -3.250667 3.836181 0
M  V30 4 C 1.317705 -2.059423 3.144318 0
M  V30 5 N 2.393825 -1.311565 3.503083 0
M  V30 6 C 2.752004 -0.183355 2.864581 0
M  V30 7 C 1.961582 0.196407 1.800242 0
M  V30 8 N 2.292483 1.317638 1.142318 0
M  V30 9 C 1.595644 1.782314 0.092039 0
M  V30 10 C 2.013435 3.025905 -0.590313 0
M  V30 11 C 1.509737 3.683002 -1.626350 0
M  V30 12 C 2.067223 4.815148 -2.082387 0
M  V30 13 C 3.224501 5.249181 -1.377439 0
M  V30 14 S 3.412144 3.912282 -0.050144 0
M  V30 15 C 0.522980 1.033409 -0.262602 0
M  V30 16 O -0.189073 1.382209 -1.227181 0
M  V30 17 N 0.140205 -0.090360 0.349142 0
M  V30 18 C -0.998480 -0.841254 -0.065332 0
M  V30 19 C -1.076169 -2.068508 -0.659713 0
M  V30 20 C -2.309413 -2.601367 -0.973653 0
M  V30 21 C -3.469779 -1.902968 -0.691510 0
M  V30 22 C -3.418967 -0.653967 -0.087913 0
M  V30 23 C -2.163439 -0.122844 0.226229 0
M  V30 24 C 0.862504 -0.523427 1.395914 0
M  V30 25 N 0.579254 -1.638219 2.092712 0
M  V30 26 H 0.910074 -4.336999 1.633113 0
M  V30 27 H -0.186636 -5.697593 2.008291 0
M  V30 28 H -0.851855 -4.108895 1.389542 0
M  V30 29 H -1.145802 -3.489902 3.594448 0
M  V30 30 H -0.238436 -4.923745 4.126763 0
M  V30 31 H 1.575106 -3.530430 4.652313 0
M  V30 32 H 3.621269 0.393955 3.177474 0
M  V30 33 H 0.626345 3.319551 -2.136762 0
M  V30 34 H 1.765291 5.446491 -2.908104 0
M  V30 35 H 3.839876 6.261877 -1.676534 0
M  V30 36 H -0.095350 -2.494407 -0.819055 0
M  V30 37 H -2.281654 -3.576176 -1.441597 0
M  V30 38 H -4.418122 -2.351225 -0.951449 0
M  V30 39 H -4.351164 -0.144025 0.114143 0
M  V30 40 H -2.243936 0.854940 0.693156 0
M  V30 END ATOM
M  V30 BEGIN BOND
M  V30 1 1 1 2
M  V30 2 1 2 3
M  V30 3 1 3 4
M  V30 4 2 4 5
M  V30 5 1 5 6
M  V30 6 2 6 7
M  V30 7 1 7 8
M  V30 8 2 8 9
M  V30 9 1 9 10
M  V30 10 2 10 11
M  V30 11 1 11 12
M  V30 12 2 12 13
M  V30 13 1 13 14
M  V30 14 1 9 15
M  V30 15 2 15 16
M  V30 16 1 15 17
M  V30 17 1 17 18
M  V30 18 2 18 19
M  V30 19 1 19 20
M  V30 20 2 20 21
M  V30 21 1 21 22
M  V30 22 2 22 23
M  V30 23 1 17 24
M  V30 24 2 24 25
M  V30 25 1 25 4
M  V30 26 1 24 7
M  V30 27 1 14 10
M  V30 28 1 23 18
M  V30 29 1 1 26
M  V30 30 1 1 27
M  V30 31 1 1 28
M  V30 32 1 2 29
M  V30 33 1 2 30
M  V30 34 1 3 31
M  V30 35 1 6 32
M  V30 36 1 11 33
M  V30 37 1 12 34
M  V30 38 1 13 35
M  V30 39 1 19 36
M  V30 40 1 20 37
M  V30 41 1 21 38
M  V30 42 1 22 39
M  V30 43 1 23 40
M  V30 END BOND
M  V30 END CTAB
M  END
>  <Dataset>  (684) 
ChEMBL_Kinases

>  <Ligand_Instance>  (684) 
nan

>  <PDB_ID>  (684) 
nan

>  <Standardized_SMILES>  (684) 
CCNc1ncc2nc(-c3cccs3)c(=O)n(-c3ccccc3)c2n1

>  <Name>  (684) 
nan

>  <Pocket>  (684) 
nan

>  <ATP_Site>  (684) 
nan

>  <Peripheral>  (684) 
nan

>  <Num_H_Atoms_ProtBoundConf>  (684) 
nan

>  <Num_Resolved_Atoms>  (684) 
nan

>  <Num_Not_Resolved_Atoms>  (684) 
nan

$$$$
CHEMBL1437486
     RDKit          3D

  0  0  0  0  0  0  0  0  0  0999 V3000
M  V30 BEGIN CTAB
M  V30 COUNTS 74 80 0 0 0
M  V30 BEGIN ATOM
M  V30 1 C -3.869534 -2.753835 1.692892 0
M  V30 2 C -2.810256 -3.385919 0.786263 0
M  V30 3 C -2.186702 -4.578871 1.471650 0
M  V30 4 C -0.730182 -4.383237 1.832788 0
M  V30 5 C 0.049303 -4.164010 0.553012 0
M  V30 6 C 1.453726 -3.776788 0.786868 0
M  V30 7 O 2.185668 -4.217869 1.728035 0
M  V30 8 N 2.001843 -2.818393 -0.151696 0
M  V30 9 C 1.468420 -2.859825 -1.490069 0
M  V30 10 C 2.059284 -1.936444 -2.475182 0
M  V30 11 C 2.882829 -0.851844 -1.876625 0
M  V30 12 C 3.856920 -1.451295 -0.922646 0
M  V30 13 C 4.574288 -2.657509 -1.499970 0
M  V30 14 C 3.033357 -1.899512 0.289209 0
M  V30 15 C 2.557361 -0.716056 0.987868 0
M  V30 16 C 1.551634 -0.907419 1.913927 0
M  V30 17 C 1.010345 0.145412 2.658535 0
M  V30 18 C 1.475255 1.453102 2.490010 0
M  V30 19 C 0.951796 2.590518 3.235535 0
M  V30 20 C -0.064240 2.490524 4.191266 0
M  V30 21 C -0.309568 3.751659 4.695694 0
M  V30 22 C 0.579970 4.563910 4.013246 0
M  V30 23 O 1.313082 3.861028 3.158630 0
M  V30 24 C 2.479504 1.676034 1.572019 0
M  V30 25 C 2.963528 0.592209 0.875980 0
M  V30 26 C -0.023785 -2.680732 -1.359145 0
M  V30 27 O -0.805540 -2.245120 -2.248960 0
M  V30 28 N -0.619965 -3.036389 -0.109297 0
M  V30 29 C -1.760001 -2.381890 0.493372 0
M  V30 30 C -2.191434 -1.193639 -0.261984 0
M  V30 31 C -3.436958 -0.926690 -0.731831 0
M  V30 32 C -3.822146 0.204008 -1.418796 0
M  V30 33 C -2.874306 1.170335 -1.665998 0
M  V30 34 C -3.235716 2.383525 -2.389274 0
M  V30 35 C -2.402557 3.429109 -2.708028 0
M  V30 36 C -3.233987 4.316537 -3.387996 0
M  V30 37 C -4.511580 3.759251 -3.439907 0
M  V30 38 O -4.452930 2.601051 -2.825623 0
M  V30 39 C -1.582140 0.942568 -1.204384 0
M  V30 40 C -1.272625 -0.198018 -0.532310 0
M  V30 41 H -3.686126 -1.680741 1.732425 0
M  V30 42 H -4.869236 -2.982299 1.283841 0
M  V30 43 H -3.844555 -3.240725 2.694560 0
M  V30 44 H -3.332581 -3.754378 -0.126204 0
M  V30 45 H -2.743884 -4.763201 2.411457 0
M  V30 46 H -2.238831 -5.478574 0.831308 0
M  V30 47 H -0.394956 -5.355995 2.247963 0
M  V30 48 H -0.549491 -3.616018 2.592724 0
M  V30 49 H 0.060356 -5.076499 -0.045488 0
M  V30 50 H 1.553890 -3.917046 -1.894445 0
M  V30 51 H 2.595458 -2.456608 -3.315123 0
M  V30 52 H 1.204366 -1.425633 -3.006561 0
M  V30 53 H 2.190300 -0.189288 -1.315671 0
M  V30 54 H 3.347374 -0.202591 -2.643390 0
M  V30 55 H 4.631274 -0.726067 -0.670923 0
M  V30 56 H 5.607560 -2.741465 -1.052860 0
M  V30 57 H 4.049772 -3.569555 -1.146922 0
M  V30 58 H 4.718248 -2.619872 -2.580741 0
M  V30 59 H 3.739490 -2.447478 0.951945 0
M  V30 60 H 1.052712 -1.798650 2.200862 0
M  V30 61 H 0.228139 0.092860 3.399373 0
M  V30 62 H -0.626342 1.630231 4.548638 0
M  V30 63 H -0.983611 4.167436 5.432397 0
M  V30 64 H 0.807042 5.629157 4.021690 0
M  V30 65 H 2.867845 2.671809 1.410644 0
M  V30 66 H 3.748261 0.822852 0.173255 0
M  V30 67 H -1.450334 -1.972550 1.517621 0
M  V30 68 H -4.224789 -1.650089 -0.576481 0
M  V30 69 H -4.844461 0.342365 -1.762395 0
M  V30 70 H -1.342814 3.480439 -2.452563 0
M  V30 71 H -2.859499 5.261732 -3.776915 0
M  V30 72 H -5.303102 4.307574 -3.933961 0
M  V30 73 H -0.890700 1.753508 -1.439645 0
M  V30 74 H -0.232527 -0.219323 -0.246032 0
M  V30 END ATOM
M  V30 BEGIN BOND
M  V30 1 1 1 2
M  V30 2 1 2 3
M  V30 3 1 3 4
M  V30 4 1 4 5
M  V30 5 1 5 6
M  V30 6 2 6 7
M  V30 7 1 6 8
M  V30 8 1 8 9
M  V30 9 1 9 10
M  V30 10 1 10 11
M  V30 11 1 11 12
M  V30 12 1 12 13
M  V30 13 1 12 14
M  V30 14 1 14 15
M  V30 15 2 15 16
M  V30 16 1 16 17
M  V30 17 2 17 18
M  V30 18 1 18 19
M  V30 19 2 19 20
M  V30 20 1 20 21
M  V30 21 2 21 22
M  V30 22 1 22 23
M  V30 23 1 18 24
M  V30 24 2 24 25
M  V30 25 1 9 26
M  V30 26 2 26 27
M  V30 27 1 26 28
M  V30 28 1 28 29
M  V30 29 1 29 30
M  V30 30 2 30 31
M  V30 31 1 31 32
M  V30 32 2 32 33
M  V30 33 1 33 34
M  V30 34 2 34 35
M  V30 35 1 35 36
M  V30 36 2 36 37
M  V30 37 1 37 38
M  V30 38 1 33 39
M  V30 39 2 39 40
M  V30 40 1 29 2
M  V30 41 1 40 30
M  V30 42 1 28 5
M  V30 43 1 38 34
M  V30 44 1 14 8
M  V30 45 1 25 15
M  V30 46 1 23 19
M  V30 47 1 1 41
M  V30 48 1 1 42
M  V30 49 1 1 43
M  V30 50 1 2 44
M  V30 51 1 3 45
M  V30 52 1 3 46
M  V30 53 1 4 47
M  V30 54 1 4 48
M  V30 55 1 5 49
M  V30 56 1 9 50
M  V30 57 1 10 51
M  V30 58 1 10 52
M  V30 59 1 11 53
M  V30 60 1 11 54
M  V30 61 1 12 55
M  V30 62 1 13 56
M  V30 63 1 13 57
M  V30 64 1 13 58
M  V30 65 1 14 59
M  V30 66 1 16 60
M  V30 67 1 17 61
M  V30 68 1 20 62
M  V30 69 1 21 63
M  V30 70 1 22 64
M  V30 71 1 24 65
M  V30 72 1 25 66
M  V30 73 1 29 67
M  V30 74 1 31 68
M  V30 75 1 32 69
M  V30 76 1 35 70
M  V30 77 1 36 71
M  V30 78 1 37 72
M  V30 79 1 39 73
M  V30 80 1 40 74
M  V30 END BOND
M  V30 END CTAB
M  END
>  <Dataset>  (685) 
ChEMBL_Kinases

>  <Ligand_Instance>  (685) 
nan

>  <PDB_ID>  (685) 
nan

>  <Standardized_SMILES>  (685) 
CC1CCC2C(=O)N3C(CCC(C)C3c3ccc(-c4ccco4)cc3)C(=O)N2C1c1ccc(-c2ccco2)cc1

>  <Name>  (685) 
nan

>  <Pocket>  (685) 
nan

>  <ATP_Site>  (685) 
nan

>  <Peripheral>  (685) 
nan

>  <Num_H_Atoms_ProtBoundConf>  (685) 
nan

>  <Num_Resolved_Atoms>  (685) 
nan

>  <Num_Not_Resolved_Atoms>  (685) 
nan

$$$$
CHEMBL1429400
     RDKit          3D

  0  0  0  0  0  0  0  0  0  0999 V3000
M  V30 BEGIN CTAB
M  V30 COUNTS 42 43 0 0 0
M  V30 BEGIN ATOM
M  V30 1 C 1.540794 -3.442565 3.202004 0
M  V30 2 C 1.087947 -3.884106 1.818519 0
M  V30 3 C -0.296256 -4.380492 1.907613 0
M  V30 4 C 2.003546 -5.043493 1.458237 0
M  V30 5 C 1.336727 -2.811475 0.848758 0
M  V30 6 C 0.308794 -1.910421 0.674219 0
M  V30 7 C 0.406617 -0.867520 -0.194122 0
M  V30 8 C 1.566246 -0.674199 -0.945814 0
M  V30 9 O 1.952455 0.267748 -1.884243 0
M  V30 10 C 1.090114 1.300438 -2.237340 0
M  V30 11 C 0.712702 2.223320 -1.148892 0
M  V30 12 O -0.079824 3.101960 -1.627058 0
M  V30 13 N 1.029683 2.329186 0.229443 0
M  V30 14 C 0.437284 3.398924 0.969828 0
M  V30 15 C -1.040983 3.370668 0.984989 0
M  V30 16 C -1.850362 2.751692 1.880851 0
M  V30 17 C -3.169786 2.967555 1.539873 0
M  V30 18 C -3.100290 3.743301 0.400252 0
M  V30 19 O -1.851748 3.940186 0.132956 0
M  V30 20 C 2.608531 -1.577193 -0.777185 0
M  V30 21 C 2.507346 -2.650810 0.116983 0
M  V30 22 H 0.859365 -2.674047 3.627945 0
M  V30 23 H 1.427713 -4.337719 3.865290 0
M  V30 24 H 2.606844 -3.157402 3.242866 0
M  V30 25 H -0.920136 -3.775240 2.605237 0
M  V30 26 H -0.849772 -4.448240 0.957183 0
M  V30 27 H -0.307821 -5.416583 2.314499 0
M  V30 28 H 1.735678 -5.941052 2.053669 0
M  V30 29 H 3.056677 -4.794524 1.780263 0
M  V30 30 H 2.007636 -5.242930 0.377985 0
M  V30 31 H -0.657353 -1.914514 1.177374 0
M  V30 32 H -0.303985 -0.078336 -0.445193 0
M  V30 33 H 1.409262 1.843827 -3.157088 0
M  V30 34 H 0.120980 0.809749 -2.551840 0
M  V30 35 H 1.690315 1.570110 0.505327 0
M  V30 36 H 0.761493 3.274465 2.023524 0
M  V30 37 H 0.803590 4.406012 0.671206 0
M  V30 38 H -1.573241 2.162962 2.751606 0
M  V30 39 H -4.099167 2.655058 1.982902 0
M  V30 40 H -3.934999 4.112083 -0.157000 0
M  V30 41 H 3.582116 -1.608057 -1.256798 0
M  V30 42 H 3.250161 -3.390874 0.312882 0
M  V30 END ATOM
M  V30 BEGIN BOND
M  V30 1 1 1 2
M  V30 2 1 2 3
M  V30 3 1 2 4
M  V30 4 1 2 5
M  V30 5 2 5 6
M  V30 6 1 6 7
M  V30 7 2 7 8
M  V30 8 1 8 9
M  V30 9 1 9 10
M  V30 10 1 10 11
M  V30 11 2 11 12
M  V30 12 1 11 13
M  V30 13 1 13 14
M  V30 14 1 14 15
M  V30 15 2 15 16
M  V30 16 1 16 17
M  V30 17 2 17 18
M  V30 18 1 18 19
M  V30 19 1 8 20
M  V30 20 2 20 21
M  V30 21 1 21 5
M  V30 22 1 19 15
M  V30 23 1 1 22
M  V30 24 1 1 23
M  V30 25 1 1 24
M  V30 26 1 3 25
M  V30 27 1 3 26
M  V30 28 1 3 27
M  V30 29 1 4 28
M  V30 30 1 4 29
M  V30 31 1 4 30
M  V30 32 1 6 31
M  V30 33 1 7 32
M  V30 34 1 10 33
M  V30 35 1 10 34
M  V30 36 1 13 35
M  V30 37 1 14 36
M  V30 38 1 14 37
M  V30 39 1 16 38
M  V30 40 1 17 39
M  V30 41 1 18 40
M  V30 42 1 20 41
M  V30 43 1 21 42
M  V30 END BOND
M  V30 END CTAB
M  END
>  <Dataset>  (686) 
ChEMBL_Kinases

>  <Ligand_Instance>  (686) 
nan

>  <PDB_ID>  (686) 
nan

>  <Standardized_SMILES>  (686) 
CC(C)(C)c1ccc(OCC(=O)NCc2ccco2)cc1

>  <Name>  (686) 
nan

>  <Pocket>  (686) 
nan

>  <ATP_Site>  (686) 
nan

>  <Peripheral>  (686) 
nan

>  <Num_H_Atoms_ProtBoundConf>  (686) 
nan

>  <Num_Resolved_Atoms>  (686) 
nan

>  <Num_Not_Resolved_Atoms>  (686) 
nan

$$$$
CHEMBL1436037
     RDKit          3D

  0  0  0  0  0  0  0  0  0  0999 V3000
M  V30 BEGIN CTAB
M  V30 COUNTS 54 58 0 0 0
M  V30 BEGIN ATOM
M  V30 1 C -1.980439 -0.849469 9.127244 0
M  V30 2 O -2.370721 0.263716 8.319233 0
M  V30 3 C -2.289546 0.162638 6.926519 0
M  V30 4 C -1.842786 -0.980569 6.284156 0
M  V30 5 C -1.811148 -0.951469 4.921365 0
M  V30 6 C -2.200659 0.154121 4.178216 0
M  V30 7 O -2.094824 -0.014653 2.804173 0
M  V30 8 C -0.935983 0.307708 2.110077 0
M  V30 9 N 0.184799 0.806883 2.677770 0
M  V30 10 C 1.282109 1.099200 1.935015 0
M  V30 11 C 1.188040 0.856283 0.558276 0
M  V30 12 N 2.239407 1.124545 -0.235426 0
M  V30 13 C 2.243188 0.924949 -1.568318 0
M  V30 14 C 3.418863 1.239368 -2.360429 0
M  V30 15 C 3.681668 1.137903 -3.676887 0
M  V30 16 C 4.916082 1.525987 -4.124274 0
M  V30 17 C 5.845850 2.008993 -3.196179 0
M  V30 18 S 4.909790 1.908050 -1.574314 0
M  V30 19 C 1.064871 0.414343 -2.070977 0
M  V30 20 O 1.044522 0.220022 -3.311221 0
M  V30 21 N -0.026405 0.120700 -1.347466 0
M  V30 22 C -1.192930 -0.404952 -1.977878 0
M  V30 23 C -1.241846 -1.883758 -2.064363 0
M  V30 24 C -1.807017 -2.674422 -1.069581 0
M  V30 25 C -1.876048 -4.044639 -1.104633 0
M  V30 26 C -1.353142 -4.709835 -2.196779 0
M  V30 27 C -0.781629 -3.988865 -3.212481 0
M  V30 28 O -0.268838 -4.692863 -4.289898 0
M  V30 29 C 0.328705 -4.030927 -5.363122 0
M  V30 30 C -0.741542 -2.615634 -3.121140 0
M  V30 31 C 0.044538 0.346550 -0.023704 0
M  V30 32 N -1.001064 0.082884 0.782337 0
M  V30 33 C -2.644791 1.290136 4.822439 0
M  V30 34 C -2.680479 1.270468 6.202241 0
M  V30 35 H -0.912824 -1.063151 8.923690 0
M  V30 36 H -2.610794 -1.738651 8.907040 0
M  V30 37 H -2.110985 -0.546615 10.174194 0
M  V30 38 H -1.544324 -1.829643 6.876567 0
M  V30 39 H -1.450019 -1.880506 4.461361 0
M  V30 40 H 2.167213 1.494073 2.387684 0
M  V30 41 H 2.986510 0.769475 -4.419253 0
M  V30 42 H 5.316689 1.522442 -5.128531 0
M  V30 43 H 6.855556 2.372226 -3.258312 0
M  V30 44 H -1.217133 0.036573 -3.016756 0
M  V30 45 H -2.115761 -0.023053 -1.504084 0
M  V30 46 H -2.231279 -2.226633 -0.196248 0
M  V30 47 H -2.324844 -4.622955 -0.308519 0
M  V30 48 H -1.400212 -5.788904 -2.238458 0
M  V30 49 H -0.396983 -3.369816 -5.878610 0
M  V30 50 H 0.670787 -4.781976 -6.117112 0
M  V30 51 H 1.204521 -3.458354 -4.970567 0
M  V30 52 H -0.281058 -2.095181 -3.948648 0
M  V30 53 H -2.935163 2.120709 4.192359 0
M  V30 54 H -3.029532 2.163097 6.710911 0
M  V30 END ATOM
M  V30 BEGIN BOND
M  V30 1 1 1 2
M  V30 2 1 2 3
M  V30 3 2 3 4
M  V30 4 1 4 5
M  V30 5 2 5 6
M  V30 6 1 6 7
M  V30 7 1 7 8
M  V30 8 2 8 9
M  V30 9 1 9 10
M  V30 10 2 10 11
M  V30 11 1 11 12
M  V30 12 2 12 13
M  V30 13 1 13 14
M  V30 14 2 14 15
M  V30 15 1 15 16
M  V30 16 2 16 17
M  V30 17 1 17 18
M  V30 18 1 13 19
M  V30 19 2 19 20
M  V30 20 1 19 21
M  V30 21 1 21 22
M  V30 22 1 22 23
M  V30 23 2 23 24
M  V30 24 1 24 25
M  V30 25 2 25 26
M  V30 26 1 26 27
M  V30 27 1 27 28
M  V30 28 1 28 29
M  V30 29 2 27 30
M  V30 30 1 21 31
M  V30 31 2 31 32
M  V30 32 1 6 33
M  V30 33 2 33 34
M  V30 34 1 34 3
M  V30 35 1 32 8
M  V30 36 1 31 11
M  V30 37 1 18 14
M  V30 38 1 30 23
M  V30 39 1 1 35
M  V30 40 1 1 36
M  V30 41 1 1 37
M  V30 42 1 4 38
M  V30 43 1 5 39
M  V30 44 1 10 40
M  V30 45 1 15 41
M  V30 46 1 16 42
M  V30 47 1 17 43
M  V30 48 1 22 44
M  V30 49 1 22 45
M  V30 50 1 24 46
M  V30 51 1 25 47
M  V30 52 1 26 48
M  V30 53 1 29 49
M  V30 54 1 29 50
M  V30 55 1 29 51
M  V30 56 1 30 52
M  V30 57 1 33 53
M  V30 58 1 34 54
M  V30 END BOND
M  V30 END CTAB
M  END
>  <Dataset>  (687) 
ChEMBL_Kinases

>  <Ligand_Instance>  (687) 
nan

>  <PDB_ID>  (687) 
nan

>  <Standardized_SMILES>  (687) 
COc1ccc(Oc2ncc3nc(-c4cccs4)c(=O)n(Cc4cccc(OC)c4)c3n2)cc1

>  <Name>  (687) 
nan

>  <Pocket>  (687) 
nan

>  <ATP_Site>  (687) 
nan

>  <Peripheral>  (687) 
nan

>  <Num_H_Atoms_ProtBoundConf>  (687) 
nan

>  <Num_Resolved_Atoms>  (687) 
nan

>  <Num_Not_Resolved_Atoms>  (687) 
nan

$$$$
CHEMBL1436063
     RDKit          3D

  0  0  0  0  0  0  0  0  0  0999 V3000
M  V30 BEGIN CTAB
M  V30 COUNTS 53 55 0 0 0
M  V30 BEGIN ATOM
M  V30 1 C -1.357639 -4.086711 3.470457 0
M  V30 2 C -1.036312 -4.548732 2.052682 0
M  V30 3 C 0.256445 -5.302349 2.103657 0
M  V30 4 C -0.961564 -3.337540 1.194381 0
M  V30 5 C 0.190965 -3.072701 0.596851 0
M  V30 6 C 0.265203 -1.879670 -0.248798 0
M  V30 7 C 1.458326 -1.426268 -0.666943 0
M  V30 8 C 1.403538 -0.213645 -1.515666 0
M  V30 9 C 0.556506 0.877831 -0.872723 0 CFG=2
M  V30 10 C 1.323513 1.711809 0.084553 0 CFG=2
M  V30 11 C 2.313397 2.548740 -0.742379 0
M  V30 12 C 2.145866 1.026817 1.115163 0
M  V30 13 O 2.765935 2.036179 1.888322 0
M  V30 14 C 0.383035 2.712658 0.704037 0
M  V30 15 C -0.777620 2.089082 1.388707 0
M  V30 16 C -1.095349 0.687490 1.026196 0
M  V30 17 C -0.777493 0.384714 -0.421049 0 CFG=1
M  V30 18 C -1.926974 0.995332 -1.237303 0
M  V30 19 C -0.913104 -1.113476 -0.690029 0
M  V30 20 C -2.197699 -1.672090 -0.211634 0
M  V30 21 C -2.145095 -2.487181 1.037616 0
M  V30 22 H -2.351856 -3.581246 3.497326 0
M  V30 23 H -0.631838 -3.322457 3.783602 0
M  V30 24 H -1.351060 -4.914333 4.194802 0
M  V30 25 H -1.827415 -5.244095 1.720673 0
M  V30 26 H 0.405279 -5.823383 1.152291 0
M  V30 27 H 1.111512 -4.680099 2.430307 0
M  V30 28 H 0.141662 -6.064473 2.923955 0
M  V30 29 H 1.080366 -3.648021 0.670925 0
M  V30 30 H 2.386837 -1.918037 -0.398052 0
M  V30 31 H 0.909861 -0.512040 -2.468636 0
M  V30 32 H 2.375790 0.232401 -1.739480 0
M  V30 33 H 0.363420 1.557074 -1.759950 0
M  V30 34 H 3.246418 1.935467 -0.884582 0
M  V30 35 H 2.625449 3.415869 -0.157514 0
M  V30 36 H 1.869860 2.791675 -1.712868 0
M  V30 37 H 2.994382 0.464019 0.672530 0
M  V30 38 H 1.652763 0.359499 1.807230 0
M  V30 39 H 3.175268 1.664427 2.701096 0
M  V30 40 H 0.070652 3.406704 -0.130080 0
M  V30 41 H 1.007858 3.351298 1.372502 0
M  V30 42 H -0.600081 2.142717 2.502338 0
M  V30 43 H -1.656042 2.777938 1.230124 0
M  V30 44 H -2.211931 0.594941 1.127067 0
M  V30 45 H -0.702058 -0.081526 1.716220 0
M  V30 46 H -2.760661 1.339733 -0.620481 0
M  V30 47 H -2.278018 0.358604 -2.045344 0
M  V30 48 H -1.509086 1.913326 -1.745345 0
M  V30 49 H -0.905974 -1.174342 -1.803708 0
M  V30 50 H -2.958495 -0.876444 -0.072629 0
M  V30 51 H -2.659814 -2.339901 -0.997516 0
M  V30 52 H -3.035720 -3.175413 1.062663 0
M  V30 53 H -2.265141 -1.894149 1.982041 0
M  V30 END ATOM
M  V30 BEGIN BOND
M  V30 1 1 1 2
M  V30 2 1 2 3
M  V30 3 1 2 4
M  V30 4 2 4 5
M  V30 5 1 5 6
M  V30 6 2 6 7
M  V30 7 1 7 8
M  V30 8 1 8 9
M  V30 9 1 9 10
M  V30 10 1 10 11 CFG=3
M  V30 11 1 10 12
M  V30 12 1 12 13
M  V30 13 1 10 14
M  V30 14 1 14 15
M  V30 15 1 15 16
M  V30 16 1 16 17
M  V30 17 1 17 18 CFG=3
M  V30 18 1 17 19
M  V30 19 1 19 20
M  V30 20 1 20 21
M  V30 21 1 21 4
M  V30 22 1 19 6
M  V30 23 1 17 9
M  V30 24 1 1 22
M  V30 25 1 1 23
M  V30 26 1 1 24
M  V30 27 1 2 25
M  V30 28 1 3 26
M  V30 29 1 3 27
M  V30 30 1 3 28
M  V30 31 1 5 29
M  V30 32 1 7 30
M  V30 33 1 8 31
M  V30 34 1 8 32
M  V30 35 1 9 33 CFG=3
M  V30 36 1 11 34
M  V30 37 1 11 35
M  V30 38 1 11 36
M  V30 39 1 12 37
M  V30 40 1 12 38
M  V30 41 1 13 39
M  V30 42 1 14 40
M  V30 43 1 14 41
M  V30 44 1 15 42
M  V30 45 1 15 43
M  V30 46 1 16 44
M  V30 47 1 16 45
M  V30 48 1 18 46
M  V30 49 1 18 47
M  V30 50 1 18 48
M  V30 51 1 19 49
M  V30 52 1 20 50
M  V30 53 1 20 51
M  V30 54 1 21 52
M  V30 55 1 21 53
M  V30 END BOND
M  V30 END CTAB
M  END
>  <Dataset>  (688) 
ChEMBL_Kinases

>  <Ligand_Instance>  (688) 
nan

>  <PDB_ID>  (688) 
nan

>  <Standardized_SMILES>  (688) 
CC(C)C1=CC2=CC[C@@H]3[C@](C)(CO)CCC[C@]3(C)C2CC1

>  <Name>  (688) 
nan

>  <Pocket>  (688) 
nan

>  <ATP_Site>  (688) 
nan

>  <Peripheral>  (688) 
nan

>  <Num_H_Atoms_ProtBoundConf>  (688) 
nan

>  <Num_Resolved_Atoms>  (688) 
nan

>  <Num_Not_Resolved_Atoms>  (688) 
nan

$$$$
CHEMBL1436110
     RDKit          3D

  0  0  0  0  0  0  0  0  0  0999 V3000
M  V30 BEGIN CTAB
M  V30 COUNTS 62 66 0 0 0
M  V30 BEGIN ATOM
M  V30 1 C -0.234992 3.323723 3.356034 0
M  V30 2 C -0.247768 2.328526 2.252160 0
M  V30 3 N 0.862622 2.289064 1.512005 0
M  V30 4 C 0.994362 1.424397 0.463567 0
M  V30 5 N 2.177789 1.419710 -0.311032 0
M  V30 6 C 2.665845 0.641454 -1.431368 0
M  V30 7 C 3.000639 -0.782010 -1.083846 0
M  V30 8 C 4.416552 -1.008108 -0.635277 0
M  V30 9 C 5.372579 0.093002 -0.927494 0
M  V30 10 C 5.071892 0.836155 -2.194881 0
M  V30 11 C 3.666448 1.358237 -2.257026 0
M  V30 12 C -0.102322 0.617723 0.249285 0
M  V30 13 N -0.327256 -0.310875 -0.673260 0
M  V30 14 C -1.544621 -0.861899 -0.541120 0
M  V30 15 C -1.998300 -1.870125 -1.467239 0
M  V30 16 C -3.055169 -2.732065 -1.359256 0
M  V30 17 C -3.455648 -3.672417 -2.277034 0
M  V30 18 C -2.752761 -3.804312 -3.451049 0
M  V30 19 C -1.672412 -2.976726 -3.645187 0
M  V30 20 C -1.327745 -2.057438 -2.682985 0
M  V30 21 N -2.142071 -0.277581 0.505493 0
M  V30 22 C -3.425319 -0.479601 1.047302 0
M  V30 23 C -3.683244 -1.489001 2.086669 0
M  V30 24 N -2.898683 -1.298909 3.271932 0
M  V30 25 C -1.521191 -1.626730 3.181744 0
M  V30 26 C -1.263431 -2.785043 4.146459 0
M  V30 27 C -2.645166 -3.305322 4.421582 0
M  V30 28 C -3.449147 -2.020403 4.405128 0
M  V30 29 C -1.252006 0.642169 0.997669 0
M  V30 30 N -1.298073 1.532401 2.021228 0
M  V30 31 H 0.771267 3.516430 3.751164 0
M  V30 32 H -0.708800 4.239891 2.939309 0
M  V30 33 H -0.939705 2.949705 4.137515 0
M  V30 34 H 2.903942 2.144239 -0.031359 0
M  V30 35 H 1.741172 0.534512 -2.095937 0
M  V30 36 H 2.264344 -1.118876 -0.310855 0
M  V30 37 H 2.830705 -1.421936 -1.972957 0
M  V30 38 H 4.828628 -1.992381 -0.964857 0
M  V30 39 H 4.365366 -1.090660 0.490889 0
M  V30 40 H 5.542910 0.779543 -0.063064 0
M  V30 41 H 6.387473 -0.371591 -1.081212 0
M  V30 42 H 5.760140 1.708174 -2.254521 0
M  V30 43 H 5.312462 0.191866 -3.075756 0
M  V30 44 H 3.364261 1.347645 -3.322158 0
M  V30 45 H 3.639170 2.437730 -1.927828 0
M  V30 46 H -3.649087 -2.692177 -0.491168 0
M  V30 47 H -4.301064 -4.310336 -2.109684 0
M  V30 48 H -2.978659 -4.503240 -4.231210 0
M  V30 49 H -1.097310 -3.050275 -4.554515 0
M  V30 50 H -0.450377 -1.438961 -2.923729 0
M  V30 51 H -3.739689 0.516762 1.537904 0
M  V30 52 H -4.228978 -0.516214 0.220668 0
M  V30 53 H -4.781785 -1.431908 2.331197 0
M  V30 54 H -3.536684 -2.557329 1.787446 0
M  V30 55 H -0.899117 -0.755970 3.460923 0
M  V30 56 H -1.244149 -1.918581 2.150170 0
M  V30 57 H -0.602473 -3.490444 3.630474 0
M  V30 58 H -0.793250 -2.347076 5.053609 0
M  V30 59 H -2.718390 -3.762363 5.431192 0
M  V30 60 H -2.970896 -3.968486 3.622414 0
M  V30 61 H -4.523714 -2.178144 4.268237 0
M  V30 62 H -3.280299 -1.419786 5.301206 0
M  V30 END ATOM
M  V30 BEGIN BOND
M  V30 1 1 1 2
M  V30 2 2 2 3
M  V30 3 1 3 4
M  V30 4 1 4 5
M  V30 5 1 5 6
M  V30 6 1 6 7
M  V30 7 1 7 8
M  V30 8 1 8 9
M  V30 9 1 9 10
M  V30 10 1 10 11
M  V30 11 2 4 12
M  V30 12 1 12 13
M  V30 13 2 13 14
M  V30 14 1 14 15
M  V30 15 2 15 16
M  V30 16 1 16 17
M  V30 17 2 17 18
M  V30 18 1 18 19
M  V30 19 2 19 20
M  V30 20 1 14 21
M  V30 21 1 21 22
M  V30 22 1 22 23
M  V30 23 1 23 24
M  V30 24 1 24 25
M  V30 25 1 25 26
M  V30 26 1 26 27
M  V30 27 1 27 28
M  V30 28 1 21 29
M  V30 29 2 29 30
M  V30 30 1 30 2
M  V30 31 1 11 6
M  V30 32 1 29 12
M  V30 33 1 20 15
M  V30 34 1 28 24
M  V30 35 1 1 31
M  V30 36 1 1 32
M  V30 37 1 1 33
M  V30 38 1 5 34
M  V30 39 1 6 35
M  V30 40 1 7 36
M  V30 41 1 7 37
M  V30 42 1 8 38
M  V30 43 1 8 39
M  V30 44 1 9 40
M  V30 45 1 9 41
M  V30 46 1 10 42
M  V30 47 1 10 43
M  V30 48 1 11 44
M  V30 49 1 11 45
M  V30 50 1 16 46
M  V30 51 1 17 47
M  V30 52 1 18 48
M  V30 53 1 19 49
M  V30 54 1 20 50
M  V30 55 1 22 51
M  V30 56 1 22 52
M  V30 57 1 23 53
M  V30 58 1 23 54
M  V30 59 1 25 55
M  V30 60 1 25 56
M  V30 61 1 26 57
M  V30 62 1 26 58
M  V30 63 1 27 59
M  V30 64 1 27 60
M  V30 65 1 28 61
M  V30 66 1 28 62
M  V30 END BOND
M  V30 END CTAB
M  END
>  <Dataset>  (689) 
ChEMBL_Kinases

>  <Ligand_Instance>  (689) 
nan

>  <PDB_ID>  (689) 
nan

>  <Standardized_SMILES>  (689) 
Cc1nc(NC2CCCCC2)c2nc(-c3ccccc3)n(CCN3CCCC3)c2n1

>  <Name>  (689) 
nan

>  <Pocket>  (689) 
nan

>  <ATP_Site>  (689) 
nan

>  <Peripheral>  (689) 
nan

>  <Num_H_Atoms_ProtBoundConf>  (689) 
nan

>  <Num_Resolved_Atoms>  (689) 
nan

>  <Num_Not_Resolved_Atoms>  (689) 
nan

$$$$
CHEMBL1436355
     RDKit          3D

  0  0  0  0  0  0  0  0  0  0999 V3000
M  V30 BEGIN CTAB
M  V30 COUNTS 36 38 0 0 0
M  V30 BEGIN ATOM
M  V30 1 C 3.247003 -3.766089 3.667000 0
M  V30 2 O 2.000658 -4.135461 3.128565 0
M  V30 3 C 1.304786 -3.416138 2.184739 0
M  V30 4 C 0.101885 -4.013338 1.832361 0
M  V30 5 C -0.735108 -3.436985 0.897858 0
M  V30 6 C -0.384302 -2.259094 0.303080 0
M  V30 7 C 0.809187 -1.667828 0.653574 0
M  V30 8 C 1.195978 -0.421805 0.034491 0
M  V30 9 N 2.347470 0.200397 0.336756 0
M  V30 10 C 2.719164 1.365813 -0.235916 0
M  V30 11 C 1.899953 1.977843 -1.183823 0
M  V30 12 C 0.726003 1.337478 -1.487801 0
M  V30 13 N -0.256826 1.782256 -2.423797 0
M  V30 14 C -1.312506 2.648284 -1.889296 0
M  V30 15 C -1.995251 1.864995 -0.851961 0
M  V30 16 C -1.775770 1.749398 0.463456 0
M  V30 17 C -2.512163 0.969783 1.279742 0
M  V30 18 C -3.541416 0.283269 0.614700 0
M  V30 19 S -3.348573 0.841640 -1.185809 0
M  V30 20 N 0.422369 0.193050 -0.886288 0
M  V30 21 C 1.663208 -2.225959 1.586280 0
M  V30 22 H 3.796784 -3.185287 2.891727 0
M  V30 23 H 3.107388 -3.071184 4.535304 0
M  V30 24 H 3.813344 -4.655291 3.991104 0
M  V30 25 H -0.271662 -4.945993 2.242221 0
M  V30 26 H -1.687100 -3.851166 0.578369 0
M  V30 27 H -1.006662 -1.770259 -0.433670 0
M  V30 28 H 3.646523 1.889661 -0.008298 0
M  V30 29 H 2.096495 2.903830 -1.701859 0
M  V30 30 H 0.040280 1.347881 -3.330307 0
M  V30 31 H -0.889475 3.596493 -1.503396 0
M  V30 32 H -2.023952 2.845028 -2.710033 0
M  V30 33 H -0.935715 2.338903 0.875553 0
M  V30 34 H -2.372799 0.845520 2.342954 0
M  V30 35 H -4.281622 -0.466045 1.281397 0
M  V30 36 H 2.606090 -1.820470 1.906007 0
M  V30 END ATOM
M  V30 BEGIN BOND
M  V30 1 1 1 2
M  V30 2 1 2 3
M  V30 3 2 3 4
M  V30 4 1 4 5
M  V30 5 2 5 6
M  V30 6 1 6 7
M  V30 7 1 7 8
M  V30 8 2 8 9
M  V30 9 1 9 10
M  V30 10 2 10 11
M  V30 11 1 11 12
M  V30 12 1 12 13
M  V30 13 1 13 14
M  V30 14 1 14 15
M  V30 15 2 15 16
M  V30 16 1 16 17
M  V30 17 2 17 18
M  V30 18 1 18 19
M  V30 19 2 12 20
M  V30 20 2 7 21
M  V30 21 1 21 3
M  V30 22 1 20 8
M  V30 23 1 19 15
M  V30 24 1 1 22
M  V30 25 1 1 23
M  V30 26 1 1 24
M  V30 27 1 4 25
M  V30 28 1 5 26
M  V30 29 1 6 27
M  V30 30 1 10 28
M  V30 31 1 11 29
M  V30 32 1 13 30
M  V30 33 1 14 31
M  V30 34 1 14 32
M  V30 35 1 16 33
M  V30 36 1 17 34
M  V30 37 1 18 35
M  V30 38 1 21 36
M  V30 END BOND
M  V30 END CTAB
M  END
>  <Dataset>  (690) 
ChEMBL_Kinases

>  <Ligand_Instance>  (690) 
nan

>  <PDB_ID>  (690) 
nan

>  <Standardized_SMILES>  (690) 
COc1cccc(-c2nccc(NCc3cccs3)n2)c1

>  <Name>  (690) 
nan

>  <Pocket>  (690) 
nan

>  <ATP_Site>  (690) 
nan

>  <Peripheral>  (690) 
nan

>  <Num_H_Atoms_ProtBoundConf>  (690) 
nan

>  <Num_Resolved_Atoms>  (690) 
nan

>  <Num_Not_Resolved_Atoms>  (690) 
nan

$$$$
CHEMBL1436540
     RDKit          3D

  0  0  0  0  0  0  0  0  0  0999 V3000
M  V30 BEGIN CTAB
M  V30 COUNTS 47 50 0 0 0
M  V30 BEGIN ATOM
M  V30 1 C -0.246730 -7.053921 -0.494982 0
M  V30 2 O -0.550656 -5.726445 -0.811084 0
M  V30 3 C 0.150991 -4.641406 -0.350275 0
M  V30 4 C 1.257403 -4.712707 0.491987 0
M  V30 5 C 1.936050 -3.585135 0.932479 0
M  V30 6 C 1.501402 -2.333064 0.522089 0
M  V30 7 C 0.408801 -2.217860 -0.312559 0
M  V30 8 C -0.091190 -0.927149 -0.775394 0
M  V30 9 C -0.684993 -0.868489 -2.017546 0
M  V30 10 C -1.192437 0.315338 -2.547390 0
M  V30 11 C -1.099660 1.479148 -1.803362 0
M  V30 12 N -1.569929 2.674368 -2.247528 0
M  V30 13 C -1.433410 3.752243 -1.449307 0
M  V30 14 N -0.845032 3.693750 -0.218785 0
M  V30 15 C -0.380608 2.504381 0.215583 0
M  V30 16 N 0.210428 2.614629 1.526583 0
M  V30 17 C 1.556216 2.342291 1.954087 0
M  V30 18 C 1.641568 1.554474 3.211426 0
M  V30 19 N 0.434712 1.182610 3.830399 0
M  V30 20 C 0.114003 -0.189089 3.934195 0
M  V30 21 C -0.631179 2.117026 3.788699 0
M  V30 22 C -0.606835 3.060216 2.627481 0
M  V30 23 C -0.503210 1.391833 -0.569019 0
M  V30 24 C -0.000578 0.243964 -0.032515 0
M  V30 25 C -0.248153 -3.373109 -0.734871 0
M  V30 26 H -0.952719 -7.711935 -1.081275 0
M  V30 27 H 0.762134 -7.375122 -0.820306 0
M  V30 28 H -0.373177 -7.295000 0.576661 0
M  V30 29 H 1.556989 -5.723272 0.784375 0
M  V30 30 H 2.797051 -3.682248 1.590421 0
M  V30 31 H 1.997974 -1.414014 0.838355 0
M  V30 32 H -0.805955 -1.720026 -2.675463 0
M  V30 33 H -1.664055 0.415106 -3.509272 0
M  V30 34 H -1.854924 4.643211 -1.932248 0
M  V30 35 H 2.171025 1.868331 1.156692 0
M  V30 36 H 2.019303 3.358510 2.127624 0
M  V30 37 H 2.226493 0.611531 3.023305 0
M  V30 38 H 2.259554 2.102256 3.974976 0
M  V30 39 H -0.931763 -0.420849 3.672067 0
M  V30 40 H 0.778271 -0.884394 3.406226 0
M  V30 41 H 0.202890 -0.466917 5.025274 0
M  V30 42 H -0.632218 2.693122 4.742808 0
M  V30 43 H -1.579828 1.540929 3.779510 0
M  V30 44 H -1.642405 3.244617 2.279508 0
M  V30 45 H -0.222053 4.055412 2.946244 0
M  V30 46 H 0.464620 0.198254 0.942337 0
M  V30 47 H -1.114094 -3.279670 -1.396613 0
M  V30 END ATOM
M  V30 BEGIN BOND
M  V30 1 1 1 2
M  V30 2 1 2 3
M  V30 3 2 3 4
M  V30 4 1 4 5
M  V30 5 2 5 6
M  V30 6 1 6 7
M  V30 7 1 7 8
M  V30 8 2 8 9
M  V30 9 1 9 10
M  V30 10 2 10 11
M  V30 11 1 11 12
M  V30 12 2 12 13
M  V30 13 1 13 14
M  V30 14 2 14 15
M  V30 15 1 15 16
M  V30 16 1 16 17
M  V30 17 1 17 18
M  V30 18 1 18 19
M  V30 19 1 19 20
M  V30 20 1 19 21
M  V30 21 1 21 22
M  V30 22 1 15 23
M  V30 23 2 23 24
M  V30 24 2 7 25
M  V30 25 1 25 3
M  V30 26 1 24 8
M  V30 27 1 23 11
M  V30 28 1 22 16
M  V30 29 1 1 26
M  V30 30 1 1 27
M  V30 31 1 1 28
M  V30 32 1 4 29
M  V30 33 1 5 30
M  V30 34 1 6 31
M  V30 35 1 9 32
M  V30 36 1 10 33
M  V30 37 1 13 34
M  V30 38 1 17 35
M  V30 39 1 17 36
M  V30 40 1 18 37
M  V30 41 1 18 38
M  V30 42 1 20 39
M  V30 43 1 20 40
M  V30 44 1 20 41
M  V30 45 1 21 42
M  V30 46 1 21 43
M  V30 47 1 22 44
M  V30 48 1 22 45
M  V30 49 1 24 46
M  V30 50 1 25 47
M  V30 END BOND
M  V30 END CTAB
M  END
>  <Dataset>  (691) 
ChEMBL_Kinases

>  <Ligand_Instance>  (691) 
nan

>  <PDB_ID>  (691) 
nan

>  <Standardized_SMILES>  (691) 
COc1cccc(-c2ccc3ncnc(N4CCN(C)CC4)c3c2)c1

>  <Name>  (691) 
nan

>  <Pocket>  (691) 
nan

>  <ATP_Site>  (691) 
nan

>  <Peripheral>  (691) 
nan

>  <Num_H_Atoms_ProtBoundConf>  (691) 
nan

>  <Num_Resolved_Atoms>  (691) 
nan

>  <Num_Not_Resolved_Atoms>  (691) 
nan

$$$$
CHEMBL1436644
     RDKit          3D

  0  0  0  0  0  0  0  0  0  0999 V3000
M  V30 BEGIN CTAB
M  V30 COUNTS 38 41 0 0 0
M  V30 BEGIN ATOM
M  V30 1 O 0.370363 -1.486008 2.171227 0
M  V30 2 C 0.327456 -0.388048 1.600007 0
M  V30 3 C 1.549319 0.236141 1.491646 0
M  V30 4 C 2.793562 -0.338481 2.002701 0
M  V30 5 C 2.860921 -0.913365 3.257305 0
M  V30 6 C 4.012114 -1.473489 3.794357 0
M  V30 7 C 5.134081 -1.429002 2.985669 0
M  V30 8 F 6.320626 -1.958693 3.431743 0
M  V30 9 C 5.152450 -0.866276 1.704379 0
M  V30 10 F 6.292513 -0.864457 0.980540 0
M  V30 11 C 3.962244 -0.334880 1.256769 0
M  V30 12 N 1.606045 1.454339 0.876000 0
M  V30 13 C 0.465440 2.006289 0.394582 0
M  V30 14 C 0.502880 3.240044 -0.232241 0
M  V30 15 N -0.637505 3.787342 -0.711076 0
M  V30 16 C -1.791437 3.117240 -0.567338 0
M  V30 17 N -1.814921 1.911465 0.047537 0
M  V30 18 C -0.718497 1.314116 0.544432 0
M  V30 19 N -0.829696 0.113745 1.141454 0
M  V30 20 C -2.090796 -0.591404 1.284434 0
M  V30 21 C -2.383541 -1.490898 0.137548 0
M  V30 22 C -3.076382 -1.098639 -0.989246 0
M  V30 23 C -3.349470 -1.930822 -2.054873 0
M  V30 24 C -2.911552 -3.237863 -2.009697 0
M  V30 25 F -3.135534 -4.125513 -3.012880 0
M  V30 26 C -2.216940 -3.649748 -0.891739 0
M  V30 27 C -1.940335 -2.810225 0.185483 0
M  V30 28 H 1.946820 -0.908043 3.822394 0
M  V30 29 H 4.048579 -1.914466 4.766330 0
M  V30 30 H 3.945219 0.108967 0.266067 0
M  V30 31 H 1.457607 3.748112 -0.327371 0
M  V30 32 H -2.717665 3.517536 -0.933547 0
M  V30 33 H -2.178096 -1.129712 2.251718 0
M  V30 34 H -2.896394 0.197625 1.262039 0
M  V30 35 H -3.433119 -0.086019 -1.058511 0
M  V30 36 H -3.884023 -1.629621 -2.925153 0
M  V30 37 H -1.870333 -4.685156 -0.856540 0
M  V30 38 H -1.397285 -3.233267 0.996033 0
M  V30 END ATOM
M  V30 BEGIN BOND
M  V30 1 2 1 2
M  V30 2 1 2 3
M  V30 3 1 3 4
M  V30 4 2 4 5
M  V30 5 1 5 6
M  V30 6 2 6 7
M  V30 7 1 7 8
M  V30 8 1 7 9
M  V30 9 1 9 10
M  V30 10 2 9 11
M  V30 11 2 3 12
M  V30 12 1 12 13
M  V30 13 2 13 14
M  V30 14 1 14 15
M  V30 15 2 15 16
M  V30 16 1 16 17
M  V30 17 2 17 18
M  V30 18 1 18 19
M  V30 19 1 19 20
M  V30 20 1 20 21
M  V30 21 2 21 22
M  V30 22 1 22 23
M  V30 23 2 23 24
M  V30 24 1 24 25
M  V30 25 1 24 26
M  V30 26 2 26 27
M  V30 27 1 19 2
M  V30 28 1 27 21
M  V30 29 1 11 4
M  V30 30 1 18 13
M  V30 31 1 5 28
M  V30 32 1 6 29
M  V30 33 1 11 30
M  V30 34 1 14 31
M  V30 35 1 16 32
M  V30 36 1 20 33
M  V30 37 1 20 34
M  V30 38 1 22 35
M  V30 39 1 23 36
M  V30 40 1 26 37
M  V30 41 1 27 38
M  V30 END BOND
M  V30 END CTAB
M  END
>  <Dataset>  (692) 
ChEMBL_Kinases

>  <Ligand_Instance>  (692) 
nan

>  <PDB_ID>  (692) 
nan

>  <Standardized_SMILES>  (692) 
O=c1c(-c2ccc(F)c(F)c2)nc2cncnc2n1Cc1ccc(F)cc1

>  <Name>  (692) 
nan

>  <Pocket>  (692) 
nan

>  <ATP_Site>  (692) 
nan

>  <Peripheral>  (692) 
nan

>  <Num_H_Atoms_ProtBoundConf>  (692) 
nan

>  <Num_Resolved_Atoms>  (692) 
nan

>  <Num_Not_Resolved_Atoms>  (692) 
nan

$$$$
CHEMBL1436648
     RDKit          3D

  0  0  0  0  0  0  0  0  0  0999 V3000
M  V30 BEGIN CTAB
M  V30 COUNTS 43 46 0 0 0
M  V30 BEGIN ATOM
M  V30 1 O -1.223067 -5.187608 1.831271 0
M  V30 2 C -0.428342 -4.243547 1.867934 0
M  V30 3 C 1.011566 -4.697961 1.922490 0
M  V30 4 C 1.855710 -3.554116 1.353783 0 CFG=1
M  V30 5 O 3.096758 -4.062579 0.916073 0
M  V30 6 C 1.144066 -2.930812 0.151110 0 CFG=1
M  V30 7 O 0.678017 -4.056009 -0.569629 0
M  V30 8 C -0.055870 -2.173743 0.569860 0 CFG=2
M  V30 9 C 0.091423 -0.757634 0.931241 0 CFG=1
M  V30 10 C 0.634039 0.182743 -0.039912 0
M  V30 11 O 1.364695 -0.075632 -1.028545 0
M  V30 12 N 0.163293 1.492163 0.357857 0
M  V30 13 C 0.838839 2.735100 0.062238 0
M  V30 14 C 1.780341 3.207232 0.985228 0
M  V30 15 C 2.460859 4.402470 0.747687 0
M  V30 16 C 2.192823 5.110003 -0.407013 0
M  V30 17 F 2.879936 6.275348 -0.602938 0
M  V30 18 C 1.254636 4.650673 -1.338561 0
M  V30 19 C 0.592728 3.465295 -1.083326 0
M  V30 20 F -0.309911 3.018416 -1.974285 0
M  V30 21 C -1.064305 1.216797 1.069896 0
M  V30 22 O -1.700242 2.168418 1.609808 0
M  V30 23 C -1.341022 -0.212989 1.016603 0 CFG=2
M  V30 24 C -1.981366 -0.805899 2.208801 0
M  V30 25 C -1.991352 -2.311186 2.073547 0
M  V30 26 C -0.597801 -2.793841 1.869169 0 CFG=1
M  V30 27 H 1.183446 -5.633795 1.378044 0
M  V30 28 H 1.267087 -4.744069 3.006351 0
M  V30 29 H 2.015126 -2.780111 2.104661 0
M  V30 30 H 3.495840 -3.338464 0.356915 0
M  V30 31 H 1.860577 -2.404349 -0.489508 0
M  V30 32 H 0.395642 -3.841454 -1.473528 0
M  V30 33 H -0.882449 -2.317555 -0.165082 0
M  V30 34 H 0.545995 -0.646030 1.936077 0
M  V30 35 H 1.989673 2.653568 1.888173 0
M  V30 36 H 3.183881 4.729659 1.493997 0
M  V30 37 H 1.066269 5.227217 -2.234076 0
M  V30 38 H -1.862675 -0.570495 0.113257 0
M  V30 39 H -3.055762 -0.480056 2.207932 0
M  V30 40 H -1.548560 -0.510748 3.171675 0
M  V30 41 H -2.334040 -2.712567 3.070785 0
M  V30 42 H -2.706974 -2.671498 1.315592 0
M  V30 43 H 0.015440 -2.399733 2.707136 0
M  V30 END ATOM
M  V30 BEGIN BOND
M  V30 1 2 1 2
M  V30 2 1 2 3
M  V30 3 1 3 4
M  V30 4 1 4 5
M  V30 5 1 4 6
M  V30 6 1 6 7
M  V30 7 1 6 8
M  V30 8 1 8 9
M  V30 9 1 9 10
M  V30 10 2 10 11
M  V30 11 1 10 12
M  V30 12 1 12 13
M  V30 13 2 13 14
M  V30 14 1 14 15
M  V30 15 2 15 16
M  V30 16 1 16 17
M  V30 17 1 16 18
M  V30 18 2 18 19
M  V30 19 1 19 20
M  V30 20 1 12 21
M  V30 21 2 21 22
M  V30 22 1 21 23
M  V30 23 1 23 24
M  V30 24 1 24 25
M  V30 25 1 25 26
M  V30 26 1 26 2
M  V30 27 1 26 8
M  V30 28 1 23 9
M  V30 29 1 19 13
M  V30 30 1 3 27
M  V30 31 1 3 28
M  V30 32 1 4 29 CFG=1
M  V30 33 1 5 30
M  V30 34 1 6 31 CFG=3
M  V30 35 1 7 32
M  V30 36 1 8 33 CFG=3
M  V30 37 1 9 34 CFG=1
M  V30 38 1 14 35
M  V30 39 1 15 36
M  V30 40 1 18 37
M  V30 41 1 23 38 CFG=3
M  V30 42 1 24 39
M  V30 43 1 24 40
M  V30 44 1 25 41
M  V30 45 1 25 42
M  V30 46 1 26 43 CFG=1
M  V30 END BOND
M  V30 END CTAB
M  END
>  <Dataset>  (693) 
ChEMBL_Kinases

>  <Ligand_Instance>  (693) 
nan

>  <PDB_ID>  (693) 
nan

>  <Standardized_SMILES>  (693) 
O=C1C[C@@H](O)[C@@H](O)[C@@H]2[C@H]3C(=O)N(c4ccc(F)cc4F)C(=O)[C@@H]3CC[C@@H]12

>  <Name>  (693) 
nan

>  <Pocket>  (693) 
nan

>  <ATP_Site>  (693) 
nan

>  <Peripheral>  (693) 
nan

>  <Num_H_Atoms_ProtBoundConf>  (693) 
nan

>  <Num_Resolved_Atoms>  (693) 
nan

>  <Num_Not_Resolved_Atoms>  (693) 
nan

$$$$
CHEMBL1437364
     RDKit          3D

  0  0  0  0  0  0  0  0  0  0999 V3000
M  V30 BEGIN CTAB
M  V30 COUNTS 43 46 0 0 0
M  V30 BEGIN ATOM
M  V30 1 O 0.392541 -2.569079 5.247548 0
M  V30 2 C 1.205884 -2.008547 4.469648 0
M  V30 3 C 2.536355 -2.205329 4.761254 0
M  V30 4 N 3.436713 -1.612337 3.938686 0
M  V30 5 C 3.023901 -0.872359 2.895138 0
M  V30 6 C 3.924765 -0.260598 2.054148 0
M  V30 7 N 3.471741 0.470506 1.030479 0
M  V30 8 C 2.195112 0.668478 0.739265 0
M  V30 9 N 1.881728 1.472551 -0.386681 0
M  V30 10 C 0.596578 1.845548 -0.850403 0
M  V30 11 C -0.607276 1.565992 -0.245834 0
M  V30 12 C -1.822977 1.956799 -0.759999 0
M  V30 13 C -1.897895 2.666202 -1.936318 0
M  V30 14 C -0.716634 2.972530 -2.582630 0
M  V30 15 C 0.461169 2.554316 -2.018517 0
M  V30 16 N 1.319643 0.076364 1.552230 0
M  V30 17 C 1.694791 -0.671410 2.597961 0
M  V30 18 N 0.802076 -1.260596 3.414503 0
M  V30 19 C -0.599251 -1.160434 3.232683 0
M  V30 20 C -1.242793 -2.208973 2.418793 0
M  V30 21 C -0.807804 -2.368588 1.037569 0
M  V30 22 C 0.234375 -3.208579 0.701627 0
M  V30 23 C 0.674984 -3.390980 -0.603215 0
M  V30 24 C 0.057745 -2.711302 -1.631164 0
M  V30 25 C -0.984656 -1.862787 -1.351815 0
M  V30 26 C -1.391578 -1.712308 -0.025055 0
M  V30 27 H 2.851354 -2.801640 5.602392 0
M  V30 28 H 4.994812 -0.353028 2.195399 0
M  V30 29 H 2.690416 1.848576 -0.960833 0
M  V30 30 H -0.614979 1.017437 0.675278 0
M  V30 31 H -2.731428 1.699811 -0.227989 0
M  V30 32 H -2.829742 2.978507 -2.353651 0
M  V30 33 H -0.773378 3.521768 -3.493405 0
M  V30 34 H 1.346649 2.844008 -2.603985 0
M  V30 35 H -1.114271 -1.118574 4.209754 0
M  V30 36 H -0.811077 -0.174376 2.747189 0
M  V30 37 H -2.333070 -1.910141 2.356295 0
M  V30 38 H -1.300714 -3.207722 2.918734 0
M  V30 39 H 0.740779 -3.757121 1.484039 0
M  V30 40 H 1.490872 -4.047945 -0.873004 0
M  V30 41 H 0.304860 -2.765526 -2.688750 0
M  V30 42 H -1.552409 -1.275348 -2.045193 0
M  V30 43 H -2.222945 -1.043144 0.246618 0
M  V30 END ATOM
M  V30 BEGIN BOND
M  V30 1 2 1 2
M  V30 2 1 2 3
M  V30 3 2 3 4
M  V30 4 1 4 5
M  V30 5 2 5 6
M  V30 6 1 6 7
M  V30 7 2 7 8
M  V30 8 1 8 9
M  V30 9 1 9 10
M  V30 10 2 10 11
M  V30 11 1 11 12
M  V30 12 2 12 13
M  V30 13 1 13 14
M  V30 14 2 14 15
M  V30 15 1 8 16
M  V30 16 2 16 17
M  V30 17 1 17 18
M  V30 18 1 18 19
M  V30 19 1 19 20
M  V30 20 1 20 21
M  V30 21 2 21 22
M  V30 22 1 22 23
M  V30 23 2 23 24
M  V30 24 1 24 25
M  V30 25 2 25 26
M  V30 26 1 18 2
M  V30 27 1 26 21
M  V30 28 1 17 5
M  V30 29 1 15 10
M  V30 30 1 3 27
M  V30 31 1 6 28
M  V30 32 1 9 29
M  V30 33 1 11 30
M  V30 34 1 12 31
M  V30 35 1 13 32
M  V30 36 1 14 33
M  V30 37 1 15 34
M  V30 38 1 19 35
M  V30 39 1 19 36
M  V30 40 1 20 37
M  V30 41 1 20 38
M  V30 42 1 22 39
M  V30 43 1 23 40
M  V30 44 1 24 41
M  V30 45 1 25 42
M  V30 46 1 26 43
M  V30 END BOND
M  V30 END CTAB
M  END
>  <Dataset>  (694) 
ChEMBL_Kinases

>  <Ligand_Instance>  (694) 
nan

>  <PDB_ID>  (694) 
nan

>  <Standardized_SMILES>  (694) 
O=c1cnc2cnc(Nc3ccccc3)nc2n1CCc1ccccc1

>  <Name>  (694) 
nan

>  <Pocket>  (694) 
nan

>  <ATP_Site>  (694) 
nan

>  <Peripheral>  (694) 
nan

>  <Num_H_Atoms_ProtBoundConf>  (694) 
nan

>  <Num_Resolved_Atoms>  (694) 
nan

>  <Num_Not_Resolved_Atoms>  (694) 
nan

$$$$
CHEMBL1436726
     RDKit          3D

  0  0  0  0  0  0  0  0  0  0999 V3000
M  V30 BEGIN CTAB
M  V30 COUNTS 51 54 0 0 0
M  V30 BEGIN ATOM
M  V30 1 C 1.423168 -5.670135 2.679862 0
M  V30 2 O 2.005813 -4.419369 3.056526 0
M  V30 3 C 1.561341 -3.247092 2.432954 0
M  V30 4 C 0.576549 -3.389735 1.482193 0
M  V30 5 C 0.150787 -2.231900 0.881391 0
M  V30 6 C -0.821660 -2.404666 -0.103376 0
M  V30 7 C -1.357292 -3.720607 -0.428894 0
M  V30 8 O -2.312901 -3.689013 0.422363 0
M  V30 9 C -1.259298 -1.276735 -0.760250 0
M  V30 10 C -0.754445 -0.033756 -0.449138 0
M  V30 11 C -1.221392 1.055283 -1.137880 0
M  V30 12 C -0.683101 2.276090 -0.793890 0
M  V30 13 C 0.289149 2.434630 0.202701 0
M  V30 14 O 0.733349 3.746948 0.432256 0
M  V30 15 C 0.185329 4.794001 -0.336441 0
M  V30 16 C 0.733332 1.292760 0.879119 0
M  V30 17 O 1.670557 1.691320 1.810099 0
M  V30 18 C 1.258713 2.194559 3.097946 0
M  V30 19 C 0.194917 0.093697 0.522814 0
M  V30 20 C 0.655058 -0.995012 1.188895 0
M  V30 21 C 1.626034 -0.964288 2.140131 0
M  V30 22 C 2.144508 -2.041735 2.820224 0
M  V30 23 O 3.114366 -2.074080 3.782558 0
M  V30 24 C 3.708000 -0.840757 4.175738 0
M  V30 25 C -2.246932 0.954031 -2.191288 0
M  V30 26 C -3.086044 -0.287589 -2.071546 0
M  V30 27 N -2.249185 -1.466622 -1.784517 0
M  V30 28 C -2.418329 -2.714846 -2.495278 0
M  V30 29 H 1.773236 -6.470808 3.362105 0
M  V30 30 H 0.304021 -5.613855 2.813227 0
M  V30 31 H 1.692195 -5.967744 1.650046 0
M  V30 32 H 0.165293 -4.350625 1.224802 0
M  V30 33 H -2.187230 -4.323124 -0.068735 0
M  V30 34 H -1.063813 3.121433 -1.350870 0
M  V30 35 H -0.914097 4.936538 -0.158523 0
M  V30 36 H 0.375600 4.604207 -1.433363 0
M  V30 37 H 0.754196 5.726548 -0.101064 0
M  V30 38 H 0.333007 1.638341 3.318194 0
M  V30 39 H 2.061810 1.941612 3.791302 0
M  V30 40 H 1.116926 3.281184 3.060402 0
M  V30 41 H 2.161426 -0.120733 2.475672 0
M  V30 42 H 3.018866 -0.247287 4.809596 0
M  V30 43 H 4.636839 -1.123987 4.719266 0
M  V30 44 H 4.036631 -0.288191 3.270772 0
M  V30 45 H -1.729698 0.918693 -3.172046 0
M  V30 46 H -2.951300 1.810526 -2.230652 0
M  V30 47 H -3.822338 -0.219101 -1.258929 0
M  V30 48 H -3.626707 -0.492935 -3.016217 0
M  V30 49 H -2.832927 -2.385954 -3.501698 0
M  V30 50 H -1.470512 -3.197757 -2.806393 0
M  V30 51 H -3.204114 -3.369071 -2.127506 0
M  V30 END ATOM
M  V30 BEGIN BOND
M  V30 1 1 1 2
M  V30 2 1 2 3
M  V30 3 2 3 4
M  V30 4 1 4 5
M  V30 5 2 5 6
M  V30 6 1 6 7
M  V30 7 2 7 8
M  V30 8 1 6 9
M  V30 9 2 9 10
M  V30 10 1 10 11
M  V30 11 2 11 12
M  V30 12 1 12 13
M  V30 13 1 13 14
M  V30 14 1 14 15
M  V30 15 2 13 16
M  V30 16 1 16 17
M  V30 17 1 17 18
M  V30 18 1 16 19
M  V30 19 2 19 20
M  V30 20 1 20 21
M  V30 21 2 21 22
M  V30 22 1 22 23
M  V30 23 1 23 24
M  V30 24 1 11 25
M  V30 25 1 25 26
M  V30 26 1 26 27
M  V30 27 1 27 28
M  V30 28 1 22 3
M  V30 29 1 20 5
M  V30 30 1 27 9
M  V30 31 1 19 10
M  V30 32 1 1 29
M  V30 33 1 1 30
M  V30 34 1 1 31
M  V30 35 1 4 32
M  V30 36 1 7 33
M  V30 37 1 12 34
M  V30 38 1 15 35
M  V30 39 1 15 36
M  V30 40 1 15 37
M  V30 41 1 18 38
M  V30 42 1 18 39
M  V30 43 1 18 40
M  V30 44 1 21 41
M  V30 45 1 24 42
M  V30 46 1 24 43
M  V30 47 1 24 44
M  V30 48 1 25 45
M  V30 49 1 25 46
M  V30 50 1 26 47
M  V30 51 1 26 48
M  V30 52 1 28 49
M  V30 53 1 28 50
M  V30 54 1 28 51
M  V30 END BOND
M  V30 END CTAB
M  END
>  <Dataset>  (695) 
ChEMBL_Kinases

>  <Ligand_Instance>  (695) 
nan

>  <PDB_ID>  (695) 
nan

>  <Standardized_SMILES>  (695) 
COc1cc2c(C=O)c3c4c(cc(OC)c(OC)c4c2cc1OC)CCN3C

>  <Name>  (695) 
nan

>  <Pocket>  (695) 
nan

>  <ATP_Site>  (695) 
nan

>  <Peripheral>  (695) 
nan

>  <Num_H_Atoms_ProtBoundConf>  (695) 
nan

>  <Num_Resolved_Atoms>  (695) 
nan

>  <Num_Not_Resolved_Atoms>  (695) 
nan

$$$$
CHEMBL1436956
     RDKit          3D

  0  0  0  0  0  0  0  0  0  0999 V3000
M  V30 BEGIN CTAB
M  V30 COUNTS 37 39 0 0 0
M  V30 BEGIN ATOM
M  V30 1 C -1.340814 -3.883327 1.439749 0
M  V30 2 O -0.207632 -4.610354 1.829714 0
M  V30 3 C 1.082792 -4.197375 1.534842 0
M  V30 4 C 2.203417 -4.921133 1.921976 0
M  V30 5 C 3.470794 -4.478089 1.609914 0
M  V30 6 C 3.668776 -3.303295 0.903927 0
M  V30 7 C 2.590955 -2.554347 0.500244 0
M  V30 8 N 2.658995 -1.321199 -0.244375 0
M  V30 9 C 1.485662 -0.582391 -0.586232 0
M  V30 10 N 0.718210 -0.792129 -1.682686 0
M  V30 11 C -0.380338 -0.009761 -1.896148 0
M  V30 12 C -0.694148 0.993070 -0.980392 0
M  V30 13 N -1.782542 1.786287 -1.170566 0
M  V30 14 C -2.065831 2.755482 -0.266222 0
M  V30 15 C -3.277561 3.622342 -0.500551 0
M  V30 16 C -1.242360 2.931826 0.849300 0
M  V30 17 O -1.516755 3.825325 1.667900 0
M  V30 18 N -0.180354 2.144964 1.019320 0
M  V30 19 C 0.673180 2.314023 2.157573 0
M  V30 20 C 0.124544 1.162881 0.122195 0
M  V30 21 N 1.206243 0.378942 0.314725 0
M  V30 22 C 1.324963 -3.028700 0.830828 0
M  V30 23 H -2.241764 -4.547933 1.483664 0
M  V30 24 H -1.519332 -3.033615 2.111381 0
M  V30 25 H -1.228077 -3.579834 0.370478 0
M  V30 26 H 2.046226 -5.842710 2.475610 0
M  V30 27 H 4.351367 -5.044315 1.914875 0
M  V30 28 H 4.633065 -2.926613 0.644530 0
M  V30 29 H 3.618772 -1.007754 -0.513987 0
M  V30 30 H -0.986938 -0.183236 -2.773301 0
M  V30 31 H -4.169537 2.932522 -0.463295 0
M  V30 32 H -3.255377 4.105981 -1.485039 0
M  V30 33 H -3.332917 4.320530 0.343795 0
M  V30 34 H 0.138923 1.943235 3.062352 0
M  V30 35 H 0.964305 3.383245 2.317161 0
M  V30 36 H 1.597005 1.739946 2.058947 0
M  V30 37 H 0.461731 -2.448913 0.520768 0
M  V30 END ATOM
M  V30 BEGIN BOND
M  V30 1 1 1 2
M  V30 2 1 2 3
M  V30 3 2 3 4
M  V30 4 1 4 5
M  V30 5 2 5 6
M  V30 6 1 6 7
M  V30 7 1 7 8
M  V30 8 1 8 9
M  V30 9 2 9 10
M  V30 10 1 10 11
M  V30 11 2 11 12
M  V30 12 1 12 13
M  V30 13 2 13 14
M  V30 14 1 14 15
M  V30 15 1 14 16
M  V30 16 2 16 17
M  V30 17 1 16 18
M  V30 18 1 18 19
M  V30 19 1 18 20
M  V30 20 2 20 21
M  V30 21 2 7 22
M  V30 22 1 22 3
M  V30 23 1 21 9
M  V30 24 1 20 12
M  V30 25 1 1 23
M  V30 26 1 1 24
M  V30 27 1 1 25
M  V30 28 1 4 26
M  V30 29 1 5 27
M  V30 30 1 6 28
M  V30 31 1 8 29
M  V30 32 1 11 30
M  V30 33 1 15 31
M  V30 34 1 15 32
M  V30 35 1 15 33
M  V30 36 1 19 34
M  V30 37 1 19 35
M  V30 38 1 19 36
M  V30 39 1 22 37
M  V30 END BOND
M  V30 END CTAB
M  END
>  <Dataset>  (696) 
ChEMBL_Kinases

>  <Ligand_Instance>  (696) 
nan

>  <PDB_ID>  (696) 
nan

>  <Standardized_SMILES>  (696) 
COc1cccc(Nc2ncc3nc(C)c(=O)n(C)c3n2)c1

>  <Name>  (696) 
nan

>  <Pocket>  (696) 
nan

>  <ATP_Site>  (696) 
nan

>  <Peripheral>  (696) 
nan

>  <Num_H_Atoms_ProtBoundConf>  (696) 
nan

>  <Num_Resolved_Atoms>  (696) 
nan

>  <Num_Not_Resolved_Atoms>  (696) 
nan

$$$$
CHEMBL1437054
     RDKit          3D

  0  0  0  0  0  0  0  0  0  0999 V3000
M  V30 BEGIN CTAB
M  V30 COUNTS 44 46 0 0 0
M  V30 BEGIN ATOM
M  V30 1 C -0.767057 -4.522989 3.034604 0
M  V30 2 C -0.552970 -3.766494 1.790241 0
M  V30 3 C -0.160632 -2.512566 1.889849 0
M  V30 4 C 0.083420 -1.662027 0.705655 0
M  V30 5 C 0.504382 -0.387615 0.702956 0
M  V30 6 C 0.722388 0.389321 -0.495871 0
M  V30 7 C -0.229719 0.528099 -1.501435 0
M  V30 8 C -0.084374 1.230077 -2.674106 0
M  V30 9 C 1.112493 1.866253 -2.894215 0
M  V30 10 O 1.277045 2.577785 -4.070317 0
M  V30 11 C 2.115877 1.785814 -1.952724 0
M  V30 12 C 3.378472 2.488986 -2.240194 0
M  V30 13 C 1.880419 1.059398 -0.807890 0
M  V30 14 C 0.651196 0.141275 2.055819 0
M  V30 15 C 1.837780 0.501766 2.652950 0
M  V30 16 C 1.967870 1.028066 3.917928 0
M  V30 17 C 0.810439 1.205584 4.640968 0
M  V30 18 C -0.396983 0.859729 4.082740 0
M  V30 19 C -0.490644 0.332456 2.803077 0
M  V30 20 C -1.873538 0.081589 2.340780 0
M  V30 21 O -2.298417 -0.307857 1.224753 0
M  V30 22 O -2.983482 0.256651 3.143648 0
M  V30 23 C -0.145820 -2.331384 -0.568437 0
M  V30 24 C -0.538972 -3.585855 -0.696486 0
M  V30 25 C -0.766286 -4.380557 0.502317 0
M  V30 26 O -1.137089 -5.568709 0.485742 0
M  V30 27 H -0.665159 -5.603142 2.804754 0
M  V30 28 H 0.009581 -4.248312 3.782655 0
M  V30 29 H -1.769463 -4.356117 3.455681 0
M  V30 30 H 0.009198 -2.045166 2.846988 0
M  V30 31 H -1.223772 0.067385 -1.396222 0
M  V30 32 H -0.859362 1.300593 -3.417000 0
M  V30 33 H 1.307780 2.026317 -4.929123 0
M  V30 34 H 3.227037 3.542982 -2.571892 0
M  V30 35 H 4.053800 2.434764 -1.342529 0
M  V30 36 H 3.906584 1.932457 -3.065059 0
M  V30 37 H 2.713415 1.052144 -0.140168 0
M  V30 38 H 2.757698 0.365716 2.109109 0
M  V30 39 H 2.932490 1.289351 4.323837 0
M  V30 40 H 0.851910 1.619745 5.654436 0
M  V30 41 H -1.281967 1.024369 4.708061 0
M  V30 42 H -3.774367 -0.405756 3.144200 0
M  V30 43 H 0.001650 -1.874979 -1.535716 0
M  V30 44 H -0.714967 -4.099966 -1.626777 0
M  V30 END ATOM
M  V30 BEGIN BOND
M  V30 1 1 1 2
M  V30 2 2 2 3
M  V30 3 1 3 4
M  V30 4 2 4 5
M  V30 5 1 5 6
M  V30 6 2 6 7
M  V30 7 1 7 8
M  V30 8 2 8 9
M  V30 9 1 9 10
M  V30 10 1 9 11
M  V30 11 1 11 12
M  V30 12 2 11 13
M  V30 13 1 5 14
M  V30 14 2 14 15
M  V30 15 1 15 16
M  V30 16 2 16 17
M  V30 17 1 17 18
M  V30 18 2 18 19
M  V30 19 1 19 20
M  V30 20 2 20 21
M  V30 21 1 20 22
M  V30 22 1 4 23
M  V30 23 2 23 24
M  V30 24 1 24 25
M  V30 25 2 25 26
M  V30 26 1 25 2
M  V30 27 1 13 6
M  V30 28 1 19 14
M  V30 29 1 1 27
M  V30 30 1 1 28
M  V30 31 1 1 29
M  V30 32 1 3 30
M  V30 33 1 7 31
M  V30 34 1 8 32
M  V30 35 1 10 33
M  V30 36 1 12 34
M  V30 37 1 12 35
M  V30 38 1 12 36
M  V30 39 1 13 37
M  V30 40 1 15 38
M  V30 41 1 16 39
M  V30 42 1 17 40
M  V30 43 1 18 41
M  V30 44 1 22 42
M  V30 45 1 23 43
M  V30 46 1 24 44
M  V30 END BOND
M  V30 END CTAB
M  END
>  <Dataset>  (697) 
ChEMBL_Kinases

>  <Ligand_Instance>  (697) 
nan

>  <PDB_ID>  (697) 
nan

>  <Standardized_SMILES>  (697) 
CC1=C/C(=C(/c2ccc(O)c(C)c2)c2ccccc2C(=O)O)C=CC1=O

>  <Name>  (697) 
nan

>  <Pocket>  (697) 
nan

>  <ATP_Site>  (697) 
nan

>  <Peripheral>  (697) 
nan

>  <Num_H_Atoms_ProtBoundConf>  (697) 
nan

>  <Num_Resolved_Atoms>  (697) 
nan

>  <Num_Not_Resolved_Atoms>  (697) 
nan

$$$$
CHEMBL1437075
     RDKit          3D

  0  0  0  0  0  0  0  0  0  0999 V3000
M  V30 BEGIN CTAB
M  V30 COUNTS 48 51 0 0 0
M  V30 BEGIN ATOM
M  V30 1 C 3.627825 -2.333350 4.422809 0
M  V30 2 N 4.741670 -2.908379 3.650147 0
M  V30 3 C 5.638466 -3.810772 4.363409 0
M  V30 4 C 5.027629 -2.664691 2.257088 0
M  V30 5 O 5.996298 -3.167070 1.599448 0
M  V30 6 C 4.045070 -1.740026 1.655440 0
M  V30 7 C 4.217618 -0.390535 1.428309 0
M  V30 8 C 3.192396 0.334034 0.856870 0
M  V30 9 C 2.019575 -0.312251 0.527252 0
M  V30 10 C 0.989566 0.563029 -0.071013 0
M  V30 11 C 1.414088 1.640664 -0.851560 0
M  V30 12 C 0.430565 2.439984 -1.378049 0
M  V30 13 C -0.932049 2.261552 -1.197671 0
M  V30 14 N -1.879914 3.076799 -1.728445 0
M  V30 15 C -3.185548 2.813572 -1.479716 0
M  V30 16 N -3.502972 1.772571 -0.729602 0
M  V30 17 C -2.673459 0.899793 -0.153734 0
M  V30 18 N -3.124919 -0.206924 0.618604 0
M  V30 19 C -4.500580 -0.481575 0.894271 0
M  V30 20 C -5.287887 -0.507659 -0.322615 0
M  V30 21 C -6.085962 0.338647 -1.076568 0
M  V30 22 C -6.683868 -0.055994 -2.239373 0
M  V30 23 C -6.478987 -1.387361 -2.691456 0
M  V30 24 S -5.350759 -2.071291 -1.328190 0
M  V30 25 C -1.329083 1.187906 -0.421266 0
M  V30 26 C -0.365416 0.370839 0.118885 0
M  V30 27 C 1.813231 -1.659004 0.740338 0
M  V30 28 C 2.848239 -2.388572 1.316573 0
M  V30 29 H 4.086108 -1.851957 5.302289 0
M  V30 30 H 2.947861 -3.126463 4.783875 0
M  V30 31 H 3.077549 -1.606364 3.771287 0
M  V30 32 H 6.603721 -3.921332 3.836461 0
M  V30 33 H 5.184229 -4.832217 4.475483 0
M  V30 34 H 5.854981 -3.446902 5.385674 0
M  V30 35 H 5.190078 0.002416 1.733452 0
M  V30 36 H 3.390862 1.394480 0.703825 0
M  V30 37 H 2.450167 1.848441 -1.042478 0
M  V30 38 H 0.645937 3.304242 -2.001638 0
M  V30 39 H -3.984504 3.411707 -1.862482 0
M  V30 40 H -2.434293 -0.874348 1.021981 0
M  V30 41 H -4.867358 0.289363 1.635213 0
M  V30 42 H -4.567827 -1.485766 1.377153 0
M  V30 43 H -6.195191 1.322839 -0.648527 0
M  V30 44 H -7.302202 0.615337 -2.812216 0
M  V30 45 H -6.911265 -1.794513 -3.603329 0
M  V30 46 H -0.566192 -0.476892 0.727830 0
M  V30 47 H 0.869943 -2.113095 0.462375 0
M  V30 48 H 2.650589 -3.440127 1.468313 0
M  V30 END ATOM
M  V30 BEGIN BOND
M  V30 1 1 1 2
M  V30 2 1 2 3
M  V30 3 1 2 4
M  V30 4 2 4 5
M  V30 5 1 4 6
M  V30 6 2 6 7
M  V30 7 1 7 8
M  V30 8 2 8 9
M  V30 9 1 9 10
M  V30 10 2 10 11
M  V30 11 1 11 12
M  V30 12 2 12 13
M  V30 13 1 13 14
M  V30 14 2 14 15
M  V30 15 1 15 16
M  V30 16 2 16 17
M  V30 17 1 17 18
M  V30 18 1 18 19
M  V30 19 1 19 20
M  V30 20 2 20 21
M  V30 21 1 21 22
M  V30 22 2 22 23
M  V30 23 1 23 24
M  V30 24 1 17 25
M  V30 25 2 25 26
M  V30 26 1 9 27
M  V30 27 2 27 28
M  V30 28 1 28 6
M  V30 29 1 26 10
M  V30 30 1 25 13
M  V30 31 1 24 20
M  V30 32 1 1 29
M  V30 33 1 1 30
M  V30 34 1 1 31
M  V30 35 1 3 32
M  V30 36 1 3 33
M  V30 37 1 3 34
M  V30 38 1 7 35
M  V30 39 1 8 36
M  V30 40 1 11 37
M  V30 41 1 12 38
M  V30 42 1 15 39
M  V30 43 1 18 40
M  V30 44 1 19 41
M  V30 45 1 19 42
M  V30 46 1 21 43
M  V30 47 1 22 44
M  V30 48 1 23 45
M  V30 49 1 26 46
M  V30 50 1 27 47
M  V30 51 1 28 48
M  V30 END BOND
M  V30 END CTAB
M  END
>  <Dataset>  (698) 
ChEMBL_Kinases

>  <Ligand_Instance>  (698) 
nan

>  <PDB_ID>  (698) 
nan

>  <Standardized_SMILES>  (698) 
CN(C)C(=O)c1ccc(-c2ccc3ncnc(NCc4cccs4)c3c2)cc1

>  <Name>  (698) 
nan

>  <Pocket>  (698) 
nan

>  <ATP_Site>  (698) 
nan

>  <Peripheral>  (698) 
nan

>  <Num_H_Atoms_ProtBoundConf>  (698) 
nan

>  <Num_Resolved_Atoms>  (698) 
nan

>  <Num_Not_Resolved_Atoms>  (698) 
nan

$$$$
CHEMBL1437138
     RDKit          3D

  0  0  0  0  0  0  0  0  0  0999 V3000
M  V30 BEGIN CTAB
M  V30 COUNTS 64 68 0 0 0
M  V30 BEGIN ATOM
M  V30 1 C 2.148054 -0.501424 -2.082202 0
M  V30 2 C 1.759976 -0.675134 -0.598465 0 CFG=1
M  V30 3 C 2.153869 0.582357 0.057281 0
M  V30 4 O 2.606200 1.169357 -0.984946 0
M  V30 5 N 2.148719 1.179993 1.334080 0
M  V30 6 C 2.640496 2.482389 1.593781 0
M  V30 7 C 3.978355 2.672867 1.917754 0
M  V30 8 C 4.489854 3.922902 2.174525 0
M  V30 9 C 3.640582 5.014166 2.103906 0
M  V30 10 C 4.124745 6.281522 2.353699 0
M  V30 11 C 3.253266 7.358986 2.274471 0
M  V30 12 C 1.904687 7.206870 1.951432 0
M  V30 13 C 1.449941 5.914857 1.705973 0
M  V30 14 C 2.315312 4.842922 1.784250 0
M  V30 15 C 1.803681 3.577851 1.526729 0
M  V30 16 C 0.273366 -0.950834 -0.560208 0 CFG=2
M  V30 17 C -0.432165 -1.184041 0.732250 0
M  V30 18 C -0.282232 -2.282486 -0.257013 0 CFG=2
M  V30 19 C 0.694361 -3.365627 0.135683 0
M  V30 20 C -1.473793 -2.820285 -1.016711 0 CFG=1
M  V30 21 N -1.817574 -4.123547 -0.542788 0
M  V30 22 C -1.972619 -5.520557 -0.557792 0
M  V30 23 O -1.568421 -5.949821 -1.683658 0
M  V30 24 C -2.503820 -6.318880 0.526713 0
M  V30 25 C -2.905421 -5.939315 1.784705 0
M  V30 26 C -3.401106 -6.865528 2.701107 0
M  V30 27 C -3.464696 -8.172487 2.277362 0
M  V30 28 N -3.078258 -8.562236 1.055272 0
M  V30 29 C -2.597254 -7.650004 0.172870 0
M  V30 30 C -2.592566 -1.869885 -1.133530 0
M  V30 31 C -3.572544 -1.727710 -0.160313 0
M  V30 32 C -4.604485 -0.823336 -0.301496 0
M  V30 33 C -4.701859 -0.027167 -1.413057 0
M  V30 34 C -3.760225 -0.103289 -2.441848 0
M  V30 35 C -2.760324 -1.027764 -2.230432 0
M  V30 36 H 3.227376 -0.331374 -2.169883 0
M  V30 37 H 1.559275 0.371026 -2.442747 0
M  V30 38 H 1.810362 -1.370802 -2.664357 0
M  V30 39 H 2.378615 -1.488678 -0.202296 0
M  V30 40 H 1.724892 0.494453 1.975202 0
M  V30 41 H 4.639767 1.792414 1.969326 0
M  V30 42 H 5.545348 4.069967 2.431634 0
M  V30 43 H 5.178289 6.454378 2.611033 0
M  V30 44 H 3.560653 8.380000 2.460606 0
M  V30 45 H 1.207091 8.034374 1.885876 0
M  V30 46 H 0.402979 5.791056 1.454867 0
M  V30 47 H 0.762783 3.489390 1.282939 0
M  V30 48 H -0.274151 -0.280916 -1.286822 0
M  V30 49 H 0.167638 -1.242284 1.658318 0
M  V30 50 H -1.398859 -0.658815 0.891494 0
M  V30 51 H 0.162259 -4.236471 0.601980 0
M  V30 52 H 1.502681 -2.999734 0.801432 0
M  V30 53 H 1.202124 -3.818071 -0.755954 0
M  V30 54 H -1.090362 -2.941031 -2.083884 0
M  V30 55 H -2.161297 -3.747890 0.404949 0
M  V30 56 H -2.792012 -4.882411 1.965872 0
M  V30 57 H -3.656679 -6.391115 3.618424 0
M  V30 58 H -3.865368 -8.798503 3.082738 0
M  V30 59 H -2.301300 -8.048878 -0.805323 0
M  V30 60 H -3.556086 -2.317497 0.734640 0
M  V30 61 H -5.384954 -0.701092 0.446636 0
M  V30 62 H -5.502659 0.704632 -1.567861 0
M  V30 63 H -3.740209 0.472568 -3.358762 0
M  V30 64 H -1.993835 -1.129759 -3.005741 0
M  V30 END ATOM
M  V30 BEGIN BOND
M  V30 1 1 1 2
M  V30 2 1 2 3
M  V30 3 2 3 4
M  V30 4 1 3 5
M  V30 5 1 5 6
M  V30 6 2 6 7
M  V30 7 1 7 8
M  V30 8 2 8 9
M  V30 9 1 9 10
M  V30 10 2 10 11
M  V30 11 1 11 12
M  V30 12 2 12 13
M  V30 13 1 13 14
M  V30 14 2 14 15
M  V30 15 1 2 16
M  V30 16 1 16 17
M  V30 17 1 17 18
M  V30 18 1 18 19 CFG=1
M  V30 19 1 18 20
M  V30 20 1 20 21
M  V30 21 1 21 22
M  V30 22 2 22 23
M  V30 23 1 22 24
M  V30 24 2 24 25
M  V30 25 1 25 26
M  V30 26 2 26 27
M  V30 27 1 27 28
M  V30 28 2 28 29
M  V30 29 1 20 30
M  V30 30 2 30 31
M  V30 31 1 31 32
M  V30 32 2 32 33
M  V30 33 1 33 34
M  V30 34 2 34 35
M  V30 35 1 15 6
M  V30 36 1 18 16
M  V30 37 1 29 24
M  V30 38 1 35 30
M  V30 39 1 14 9
M  V30 40 1 1 36
M  V30 41 1 1 37
M  V30 42 1 1 38
M  V30 43 1 2 39 CFG=1
M  V30 44 1 5 40
M  V30 45 1 7 41
M  V30 46 1 8 42
M  V30 47 1 10 43
M  V30 48 1 11 44
M  V30 49 1 12 45
M  V30 50 1 13 46
M  V30 51 1 15 47
M  V30 52 1 16 48 CFG=3
M  V30 53 1 17 49
M  V30 54 1 17 50
M  V30 55 1 19 51
M  V30 56 1 19 52
M  V30 57 1 19 53
M  V30 58 1 20 54 CFG=3
M  V30 59 1 21 55
M  V30 60 1 25 56
M  V30 61 1 26 57
M  V30 62 1 27 58
M  V30 63 1 29 59
M  V30 64 1 31 60
M  V30 65 1 32 61
M  V30 66 1 33 62
M  V30 67 1 34 63
M  V30 68 1 35 64
M  V30 END BOND
M  V30 END CTAB
M  END
>  <Dataset>  (699) 
ChEMBL_Kinases

>  <Ligand_Instance>  (699) 
nan

>  <PDB_ID>  (699) 
nan

>  <Standardized_SMILES>  (699) 
C[C@@H](C(=O)Nc1ccc2ccccc2c1)[C@@H]1C[C@@]1(C)[C@@H](NC(=O)c1cccnc1)c1ccccc1

>  <Name>  (699) 
nan

>  <Pocket>  (699) 
nan

>  <ATP_Site>  (699) 
nan

>  <Peripheral>  (699) 
nan

>  <Num_H_Atoms_ProtBoundConf>  (699) 
nan

>  <Num_Resolved_Atoms>  (699) 
nan

>  <Num_Not_Resolved_Atoms>  (699) 
nan

$$$$
CHEMBL1437226
     RDKit          3D

  0  0  0  0  0  0  0  0  0  0999 V3000
M  V30 BEGIN CTAB
M  V30 COUNTS 44 47 0 0 0
M  V30 BEGIN ATOM
M  V30 1 C 2.838065 -4.765036 1.228765 0
M  V30 2 O 2.735862 -3.518672 0.565172 0
M  V30 3 C 2.917269 -2.372088 1.326750 0
M  V30 4 C 3.189309 -2.432291 2.691097 0
M  V30 5 C 3.382764 -1.343455 3.519515 0
M  V30 6 C 3.288312 -0.134152 2.897473 0
M  V30 7 C 3.022852 0.006145 1.555052 0
M  V30 8 C 2.834793 -1.100899 0.756086 0
M  V30 9 C 2.552378 -1.075138 -0.691646 0
M  V30 10 N 1.208521 -1.373972 -1.063796 0
M  V30 11 C 0.078413 -0.635036 -0.665800 0
M  V30 12 N 0.155521 0.467014 0.134791 0
M  V30 13 C -0.914360 1.173671 0.516482 0
M  V30 14 C -0.851765 2.352534 1.369415 0
M  V30 15 C -1.995105 3.033019 1.731023 0
M  V30 16 C -2.030645 4.153574 2.532843 0
M  V30 17 C -0.824584 4.638579 3.016582 0
M  V30 18 N 0.310382 3.996616 2.681796 0
M  V30 19 C 0.301352 2.898906 1.891258 0
M  V30 20 N -2.128214 0.788021 0.096730 0
M  V30 21 C -2.325572 -0.281240 -0.694650 0
M  V30 22 C -3.613568 -0.594304 -1.072209 0
M  V30 23 C -3.799890 -1.692723 -1.884543 0
M  V30 24 C -2.706387 -2.438452 -2.291541 0
M  V30 25 C -1.451544 -2.063847 -1.873494 0
M  V30 26 C -1.196655 -0.978498 -1.062661 0
M  V30 27 H 2.678802 -5.606455 0.498010 0
M  V30 28 H 3.826889 -4.896067 1.728298 0
M  V30 29 H 2.054144 -4.911962 2.008464 0
M  V30 30 H 3.258467 -3.426910 3.158959 0
M  V30 31 H 3.591020 -1.449470 4.573390 0
M  V30 32 H 3.417686 0.789044 3.428200 0
M  V30 33 H 2.933945 0.911981 0.974919 0
M  V30 34 H 2.812349 -0.082472 -1.146472 0
M  V30 35 H 3.234803 -1.787503 -1.193601 0
M  V30 36 H 1.085964 -2.202232 -1.672167 0
M  V30 37 H -2.951905 2.653705 1.351011 0
M  V30 38 H -2.989178 4.603409 2.749214 0
M  V30 39 H -0.917134 5.517818 3.638459 0
M  V30 40 H 1.242459 2.425368 1.655880 0
M  V30 41 H -4.466969 0.005853 -0.741574 0
M  V30 42 H -4.819883 -1.928027 -2.174913 0
M  V30 43 H -2.893110 -3.299440 -2.932960 0
M  V30 44 H -0.677972 -2.695736 -2.236020 0
M  V30 END ATOM
M  V30 BEGIN BOND
M  V30 1 1 1 2
M  V30 2 1 2 3
M  V30 3 2 3 4
M  V30 4 1 4 5
M  V30 5 2 5 6
M  V30 6 1 6 7
M  V30 7 2 7 8
M  V30 8 1 8 9
M  V30 9 1 9 10
M  V30 10 1 10 11
M  V30 11 2 11 12
M  V30 12 1 12 13
M  V30 13 1 13 14
M  V30 14 2 14 15
M  V30 15 1 15 16
M  V30 16 2 16 17
M  V30 17 1 17 18
M  V30 18 2 18 19
M  V30 19 2 13 20
M  V30 20 1 20 21
M  V30 21 2 21 22
M  V30 22 1 22 23
M  V30 23 2 23 24
M  V30 24 1 24 25
M  V30 25 2 25 26
M  V30 26 1 8 3
M  V30 27 1 26 11
M  V30 28 1 19 14
M  V30 29 1 26 21
M  V30 30 1 1 27
M  V30 31 1 1 28
M  V30 32 1 1 29
M  V30 33 1 4 30
M  V30 34 1 5 31
M  V30 35 1 6 32
M  V30 36 1 7 33
M  V30 37 1 9 34
M  V30 38 1 9 35
M  V30 39 1 10 36
M  V30 40 1 15 37
M  V30 41 1 16 38
M  V30 42 1 17 39
M  V30 43 1 19 40
M  V30 44 1 22 41
M  V30 45 1 23 42
M  V30 46 1 24 43
M  V30 47 1 25 44
M  V30 END BOND
M  V30 END CTAB
M  END
>  <Dataset>  (700) 
ChEMBL_Kinases

>  <Ligand_Instance>  (700) 
nan

>  <PDB_ID>  (700) 
nan

>  <Standardized_SMILES>  (700) 
COc1ccccc1CNc1nc(-c2cccnc2)nc2ccccc12

>  <Name>  (700) 
nan

>  <Pocket>  (700) 
nan

>  <ATP_Site>  (700) 
nan

>  <Peripheral>  (700) 
nan

>  <Num_H_Atoms_ProtBoundConf>  (700) 
nan

>  <Num_Resolved_Atoms>  (700) 
nan

>  <Num_Not_Resolved_Atoms>  (700) 
nan

$$$$
CHEMBL1437273
     RDKit          3D

  0  0  0  0  0  0  0  0  0  0999 V3000
M  V30 BEGIN CTAB
M  V30 COUNTS 37 40 0 0 0
M  V30 BEGIN ATOM
M  V30 1 C -1.197458 -5.065666 3.401193 0
M  V30 2 C -0.665578 -3.810179 2.773766 0
M  V30 3 N 0.510370 -3.302120 3.223242 0
M  V30 4 C 1.020702 -2.179638 2.687754 0
M  V30 5 C 2.199107 -1.597966 3.079393 0
M  V30 6 N 2.602178 -0.484012 2.472270 0
M  V30 7 C 1.949609 0.147288 1.483191 0
M  V30 8 N 2.505038 1.330133 0.931800 0
M  V30 9 C 1.978247 2.134997 -0.105813 0
M  V30 10 C 0.807457 1.925882 -0.793634 0
M  V30 11 C 0.306410 2.718002 -1.802109 0
M  V30 12 C 1.036218 3.829088 -2.167761 0
M  V30 13 C 2.219843 4.092013 -1.514129 0
M  V30 14 C 2.661466 3.257000 -0.514423 0
M  V30 15 N 0.799731 -0.422892 1.103130 0
M  V30 16 C 0.360079 -1.526832 1.675361 0
M  V30 17 N -0.821843 -2.023400 1.212205 0
M  V30 18 C -1.619366 -1.425968 0.144434 0
M  V30 19 C -1.119130 -1.428903 -1.248627 0
M  V30 20 C -2.116851 -2.459122 -0.885041 0
M  V30 21 C -1.323605 -3.146184 1.754211 0
M  V30 22 O -2.407201 -3.701008 1.410224 0
M  V30 23 H -2.296391 -5.080077 3.265072 0
M  V30 24 H -0.971607 -5.132211 4.468578 0
M  V30 25 H -0.780577 -5.890065 2.786630 0
M  V30 26 H 2.774110 -2.059080 3.873847 0
M  V30 27 H 3.420661 1.653657 1.340136 0
M  V30 28 H 0.199215 1.076834 -0.551219 0
M  V30 29 H -0.617833 2.498665 -2.301139 0
M  V30 30 H 0.674949 4.475381 -2.955791 0
M  V30 31 H 2.771258 4.965476 -1.817924 0
M  V30 32 H 3.604496 3.551106 -0.062206 0
M  V30 33 H -2.376327 -0.695107 0.445096 0
M  V30 34 H -1.502368 -0.595908 -1.883370 0
M  V30 35 H -0.071157 -1.699850 -1.451852 0
M  V30 36 H -3.171919 -2.396209 -1.204985 0
M  V30 37 H -1.744283 -3.489550 -0.828545 0
M  V30 END ATOM
M  V30 BEGIN BOND
M  V30 1 1 1 2
M  V30 2 2 2 3
M  V30 3 1 3 4
M  V30 4 2 4 5
M  V30 5 1 5 6
M  V30 6 2 6 7
M  V30 7 1 7 8
M  V30 8 1 8 9
M  V30 9 2 9 10
M  V30 10 1 10 11
M  V30 11 2 11 12
M  V30 12 1 12 13
M  V30 13 2 13 14
M  V30 14 1 7 15
M  V30 15 2 15 16
M  V30 16 1 16 17
M  V30 17 1 17 18
M  V30 18 1 18 19
M  V30 19 1 19 20
M  V30 20 1 17 21
M  V30 21 2 21 22
M  V30 22 1 21 2
M  V30 23 1 16 4
M  V30 24 1 20 18
M  V30 25 1 14 9
M  V30 26 1 1 23
M  V30 27 1 1 24
M  V30 28 1 1 25
M  V30 29 1 5 26
M  V30 30 1 8 27
M  V30 31 1 10 28
M  V30 32 1 11 29
M  V30 33 1 12 30
M  V30 34 1 13 31
M  V30 35 1 14 32
M  V30 36 1 18 33
M  V30 37 1 19 34
M  V30 38 1 19 35
M  V30 39 1 20 36
M  V30 40 1 20 37
M  V30 END BOND
M  V30 END CTAB
M  END
>  <Dataset>  (701) 
ChEMBL_Kinases

>  <Ligand_Instance>  (701) 
nan

>  <PDB_ID>  (701) 
nan

>  <Standardized_SMILES>  (701) 
Cc1nc2cnc(Nc3ccccc3)nc2n(C2CC2)c1=O

>  <Name>  (701) 
nan

>  <Pocket>  (701) 
nan

>  <ATP_Site>  (701) 
nan

>  <Peripheral>  (701) 
nan

>  <Num_H_Atoms_ProtBoundConf>  (701) 
nan

>  <Num_Resolved_Atoms>  (701) 
nan

>  <Num_Not_Resolved_Atoms>  (701) 
nan

$$$$
CHEMBL1436682
     RDKit          3D

  0  0  0  0  0  0  0  0  0  0999 V3000
M  V30 BEGIN CTAB
M  V30 COUNTS 37 39 0 0 0
M  V30 BEGIN ATOM
M  V30 1 C 0.384180 -4.535856 3.989292 0
M  V30 2 O 1.109020 -3.763575 3.078896 0
M  V30 3 C 1.216446 -4.422368 1.841231 0
M  V30 4 C 1.992179 -3.603427 0.846652 0
M  V30 5 N 1.358094 -2.317290 0.598077 0
M  V30 6 C 1.962379 -1.419422 -0.323106 0
M  V30 7 N 3.110077 -1.750459 -0.938853 0
M  V30 8 C 3.736096 -0.950066 -1.808186 0
M  V30 9 N 3.222506 0.275905 -2.118866 0
M  V30 10 C 2.063218 0.693967 -1.542640 0
M  V30 11 C 1.503820 1.922899 -1.828774 0
M  V30 12 C 0.307970 2.341176 -1.233869 0
M  V30 13 C -0.299992 1.458480 -0.333149 0
M  V30 14 C -1.550465 1.892156 0.286745 0
M  V30 15 C -1.823614 3.215375 0.565648 0
M  V30 16 C -3.056949 3.422234 1.148981 0
M  V30 17 C -3.962096 2.422695 1.442143 0
M  V30 18 N -3.607342 1.142645 1.131382 0
M  V30 19 C -2.421778 0.857650 0.560571 0
M  V30 20 C 0.303246 0.247233 -0.086211 0
M  V30 21 C 1.467644 -0.177085 -0.656042 0
M  V30 22 H 0.330255 -3.964096 4.956178 0
M  V30 23 H -0.659968 -4.693633 3.594111 0
M  V30 24 H 0.804384 -5.548508 4.144088 0
M  V30 25 H 0.168305 -4.602087 1.503701 0
M  V30 26 H 1.700843 -5.398177 1.938013 0
M  V30 27 H 2.058396 -4.221989 -0.078391 0
M  V30 28 H 2.993363 -3.399438 1.277312 0
M  V30 29 H 0.481761 -2.143178 1.129101 0
M  V30 30 H 4.670700 -1.304460 -2.263207 0
M  V30 31 H 2.014246 2.547887 -2.521523 0
M  V30 32 H -0.118970 3.294517 -1.461088 0
M  V30 33 H -1.111804 3.981179 0.332387 0
M  V30 34 H -3.347150 4.451439 1.400796 0
M  V30 35 H -4.920214 2.627924 1.900424 0
M  V30 36 H -2.248236 -0.183937 0.359880 0
M  V30 37 H -0.232904 -0.352734 0.611266 0
M  V30 END ATOM
M  V30 BEGIN BOND
M  V30 1 1 1 2
M  V30 2 1 2 3
M  V30 3 1 3 4
M  V30 4 1 4 5
M  V30 5 1 5 6
M  V30 6 2 6 7
M  V30 7 1 7 8
M  V30 8 2 8 9
M  V30 9 1 9 10
M  V30 10 2 10 11
M  V30 11 1 11 12
M  V30 12 2 12 13
M  V30 13 1 13 14
M  V30 14 2 14 15
M  V30 15 1 15 16
M  V30 16 2 16 17
M  V30 17 1 17 18
M  V30 18 2 18 19
M  V30 19 1 13 20
M  V30 20 2 20 21
M  V30 21 1 21 6
M  V30 22 1 21 10
M  V30 23 1 19 14
M  V30 24 1 1 22
M  V30 25 1 1 23
M  V30 26 1 1 24
M  V30 27 1 3 25
M  V30 28 1 3 26
M  V30 29 1 4 27
M  V30 30 1 4 28
M  V30 31 1 5 29
M  V30 32 1 8 30
M  V30 33 1 11 31
M  V30 34 1 12 32
M  V30 35 1 15 33
M  V30 36 1 16 34
M  V30 37 1 17 35
M  V30 38 1 19 36
M  V30 39 1 20 37
M  V30 END BOND
M  V30 END CTAB
M  END
>  <Dataset>  (702) 
ChEMBL_Kinases

>  <Ligand_Instance>  (702) 
nan

>  <PDB_ID>  (702) 
nan

>  <Standardized_SMILES>  (702) 
COCCNc1ncnc2ccc(-c3cccnc3)cc12

>  <Name>  (702) 
nan

>  <Pocket>  (702) 
nan

>  <ATP_Site>  (702) 
nan

>  <Peripheral>  (702) 
nan

>  <Num_H_Atoms_ProtBoundConf>  (702) 
nan

>  <Num_Resolved_Atoms>  (702) 
nan

>  <Num_Not_Resolved_Atoms>  (702) 
nan

$$$$
CHEMBL1441781
     RDKit          3D

  0  0  0  0  0  0  0  0  0  0999 V3000
M  V30 BEGIN CTAB
M  V30 COUNTS 45 46 0 0 0
M  V30 BEGIN ATOM
M  V30 1 C 2.454771 -4.491702 2.633445 0
M  V30 2 N 1.439776 -4.076669 1.703741 0
M  V30 3 C 0.383855 -5.069525 1.715098 0
M  V30 4 C 1.951533 -3.867285 0.362970 0
M  V30 5 C 2.867163 -2.680772 0.285329 0
M  V30 6 N 2.165964 -1.466392 0.686100 0
M  V30 7 C 2.780573 -0.185478 0.711678 0
M  V30 8 O 3.985746 -0.100119 0.371829 0
M  V30 9 C 2.103168 1.042840 1.107782 0
M  V30 10 C 2.824163 2.217423 1.070495 0
M  V30 11 C 2.198010 3.400878 1.443076 0
M  V30 12 C 0.857897 3.335771 1.839071 0
M  V30 13 C 0.122745 2.143467 1.877875 0
M  V30 14 S -1.538633 2.308668 2.406101 0
M  V30 15 O -1.996941 1.004138 3.040851 0
M  V30 16 O -1.641866 3.404407 3.395877 0
M  V30 17 N -2.561122 2.639556 1.028817 0
M  V30 18 C -2.740787 1.784436 -0.064527 0
M  V30 19 C -2.451208 0.420445 -0.067117 0
M  V30 20 C -2.637366 -0.415910 -1.145876 0
M  V30 21 C -3.143034 0.088498 -2.324951 0
M  V30 22 C -3.441108 1.435202 -2.357896 0
M  V30 23 C -3.248398 2.246826 -1.275378 0
M  V30 24 F -3.562323 3.571438 -1.371035 0
M  V30 25 C 0.787908 1.015494 1.502501 0
M  V30 26 H 2.140105 -5.409727 3.211295 0
M  V30 27 H 3.412379 -4.765812 2.156044 0
M  V30 28 H 2.636643 -3.722751 3.384262 0
M  V30 29 H -0.302756 -4.911667 2.574889 0
M  V30 30 H 0.791846 -6.107359 1.834996 0
M  V30 31 H -0.210376 -4.992871 0.781683 0
M  V30 32 H 1.177979 -3.911250 -0.400057 0
M  V30 33 H 2.611451 -4.764646 0.174247 0
M  V30 34 H 3.732627 -2.882511 0.960465 0
M  V30 35 H 3.200722 -2.498399 -0.753404 0
M  V30 36 H 1.167019 -1.551833 0.965275 0
M  V30 37 H 3.850265 2.286068 0.769748 0
M  V30 38 H 2.707618 4.360244 1.436274 0
M  V30 39 H 0.411488 4.294354 2.122314 0
M  V30 40 H -3.085587 3.550374 1.013685 0
M  V30 41 H -2.060910 -0.011044 0.834949 0
M  V30 42 H -2.380955 -1.472899 -1.052494 0
M  V30 43 H -3.282894 -0.564554 -3.149526 0
M  V30 44 H -3.843290 1.879986 -3.268514 0
M  V30 45 H 0.194975 0.117656 1.548161 0
M  V30 END ATOM
M  V30 BEGIN BOND
M  V30 1 1 1 2
M  V30 2 1 2 3
M  V30 3 1 2 4
M  V30 4 1 4 5
M  V30 5 1 5 6
M  V30 6 1 6 7
M  V30 7 2 7 8
M  V30 8 1 7 9
M  V30 9 2 9 10
M  V30 10 1 10 11
M  V30 11 2 11 12
M  V30 12 1 12 13
M  V30 13 1 13 14
M  V30 14 2 14 15
M  V30 15 2 14 16
M  V30 16 1 14 17
M  V30 17 1 17 18
M  V30 18 2 18 19
M  V30 19 1 19 20
M  V30 20 2 20 21
M  V30 21 1 21 22
M  V30 22 2 22 23
M  V30 23 1 23 24
M  V30 24 2 13 25
M  V30 25 1 25 9
M  V30 26 1 23 18
M  V30 27 1 1 26
M  V30 28 1 1 27
M  V30 29 1 1 28
M  V30 30 1 3 29
M  V30 31 1 3 30
M  V30 32 1 3 31
M  V30 33 1 4 32
M  V30 34 1 4 33
M  V30 35 1 5 34
M  V30 36 1 5 35
M  V30 37 1 6 36
M  V30 38 1 10 37
M  V30 39 1 11 38
M  V30 40 1 12 39
M  V30 41 1 17 40
M  V30 42 1 19 41
M  V30 43 1 20 42
M  V30 44 1 21 43
M  V30 45 1 22 44
M  V30 46 1 25 45
M  V30 END BOND
M  V30 END CTAB
M  END
>  <Dataset>  (703) 
ChEMBL_Kinases

>  <Ligand_Instance>  (703) 
nan

>  <PDB_ID>  (703) 
nan

>  <Standardized_SMILES>  (703) 
CN(C)CCNC(=O)c1cccc(S(=O)(=O)Nc2ccccc2F)c1

>  <Name>  (703) 
nan

>  <Pocket>  (703) 
nan

>  <ATP_Site>  (703) 
nan

>  <Peripheral>  (703) 
nan

>  <Num_H_Atoms_ProtBoundConf>  (703) 
nan

>  <Num_Resolved_Atoms>  (703) 
nan

>  <Num_Not_Resolved_Atoms>  (703) 
nan

$$$$
CHEMBL1441690
     RDKit          3D

  0  0  0  0  0  0  0  0  0  0999 V3000
M  V30 BEGIN CTAB
M  V30 COUNTS 47 50 0 0 0
M  V30 BEGIN ATOM
M  V30 1 C -0.978217 -4.991191 -0.300520 0
M  V30 2 C -0.850796 -3.756126 0.519862 0
M  V30 3 C 0.372838 -3.084852 0.610779 0
M  V30 4 C 0.396751 -1.951411 1.392283 0
M  V30 5 N 1.578902 -1.183742 1.563625 0
M  V30 6 C 2.888383 -1.430529 1.001146 0
M  V30 7 C 3.046280 -0.408386 -0.122651 0
M  V30 8 N 2.362855 0.829346 0.216263 0
M  V30 9 C 2.406111 1.818588 -0.811300 0
M  V30 10 C 3.038000 1.610712 -2.010550 0
M  V30 11 C 3.121006 2.515865 -3.046561 0
M  V30 12 C 2.512535 3.746649 -2.862699 0
M  V30 13 C 1.867298 4.016789 -1.692623 0
M  V30 14 C 1.822641 3.066249 -0.698511 0
M  V30 15 C 1.659037 1.191608 1.424940 0
M  V30 16 C 1.609366 0.015154 2.375553 0
M  V30 17 N -0.700840 -1.547685 2.010783 0
M  V30 18 C -1.889327 -2.176181 1.938816 0
M  V30 19 C -3.070176 -1.683941 2.644614 0
M  V30 20 C -2.964436 -0.540789 3.407844 0
M  V30 21 C -4.067820 -0.060397 4.081559 0
M  V30 22 C -5.296238 -0.690759 4.020540 0
M  V30 23 C -5.336951 -1.827326 3.241895 0
M  V30 24 C -4.279600 -2.346146 2.555585 0
M  V30 25 N -1.947395 -3.287599 1.183141 0
M  V30 26 H -1.974955 -5.098754 -0.735889 0
M  V30 27 H -0.227968 -4.954031 -1.144350 0
M  V30 28 H -0.657871 -5.853387 0.312174 0
M  V30 29 H 1.241116 -3.444112 0.093500 0
M  V30 30 H 2.935105 -2.427086 0.560044 0
M  V30 31 H 3.697180 -1.334413 1.748954 0
M  V30 32 H 2.636189 -0.852409 -1.054973 0
M  V30 33 H 4.130038 -0.265979 -0.267784 0
M  V30 34 H 3.529142 0.661813 -2.200912 0
M  V30 35 H 3.628291 2.313682 -3.976102 0
M  V30 36 H 2.527604 4.514801 -3.619727 0
M  V30 37 H 1.375758 4.974425 -1.509558 0
M  V30 38 H 1.296067 3.317318 0.227483 0
M  V30 39 H 0.619882 1.554182 1.199843 0
M  V30 40 H 2.134126 2.027885 1.959442 0
M  V30 41 H 0.686977 0.038316 2.993585 0
M  V30 42 H 2.509535 0.078041 3.025706 0
M  V30 43 H -2.031395 0.027677 3.516597 0
M  V30 44 H -3.999610 0.844263 4.690292 0
M  V30 45 H -6.158255 -0.311413 4.549694 0
M  V30 46 H -6.270975 -2.371633 3.150208 0
M  V30 47 H -4.336096 -3.227360 1.959555 0
M  V30 END ATOM
M  V30 BEGIN BOND
M  V30 1 1 1 2
M  V30 2 2 2 3
M  V30 3 1 3 4
M  V30 4 1 4 5
M  V30 5 1 5 6
M  V30 6 1 6 7
M  V30 7 1 7 8
M  V30 8 1 8 9
M  V30 9 2 9 10
M  V30 10 1 10 11
M  V30 11 2 11 12
M  V30 12 1 12 13
M  V30 13 2 13 14
M  V30 14 1 8 15
M  V30 15 1 15 16
M  V30 16 2 4 17
M  V30 17 1 17 18
M  V30 18 1 18 19
M  V30 19 2 19 20
M  V30 20 1 20 21
M  V30 21 2 21 22
M  V30 22 1 22 23
M  V30 23 2 23 24
M  V30 24 2 18 25
M  V30 25 1 25 2
M  V30 26 1 16 5
M  V30 27 1 24 19
M  V30 28 1 14 9
M  V30 29 1 1 26
M  V30 30 1 1 27
M  V30 31 1 1 28
M  V30 32 1 3 29
M  V30 33 1 6 30
M  V30 34 1 6 31
M  V30 35 1 7 32
M  V30 36 1 7 33
M  V30 37 1 10 34
M  V30 38 1 11 35
M  V30 39 1 12 36
M  V30 40 1 13 37
M  V30 41 1 14 38
M  V30 42 1 15 39
M  V30 43 1 15 40
M  V30 44 1 16 41
M  V30 45 1 16 42
M  V30 46 1 20 43
M  V30 47 1 21 44
M  V30 48 1 22 45
M  V30 49 1 23 46
M  V30 50 1 24 47
M  V30 END BOND
M  V30 END CTAB
M  END
>  <Dataset>  (704) 
ChEMBL_Kinases

>  <Ligand_Instance>  (704) 
nan

>  <PDB_ID>  (704) 
nan

>  <Standardized_SMILES>  (704) 
Cc1cc(N2CCN(c3ccccc3)CC2)nc(-c2ccccc2)n1

>  <Name>  (704) 
nan

>  <Pocket>  (704) 
nan

>  <ATP_Site>  (704) 
nan

>  <Peripheral>  (704) 
nan

>  <Num_H_Atoms_ProtBoundConf>  (704) 
nan

>  <Num_Resolved_Atoms>  (704) 
nan

>  <Num_Not_Resolved_Atoms>  (704) 
nan

$$$$
CHEMBL1441604
     RDKit          3D

  0  0  0  0  0  0  0  0  0  0999 V3000
M  V30 BEGIN CTAB
M  V30 COUNTS 44 46 0 0 0
M  V30 BEGIN ATOM
M  V30 1 C -0.029084 -4.673463 1.016550 0
M  V30 2 O 1.089571 -4.108697 1.634982 0
M  V30 3 C 1.801240 -3.126862 0.960002 0
M  V30 4 C 1.454596 -2.682955 -0.293835 0
M  V30 5 C 2.181189 -1.709007 -0.934100 0
M  V30 6 C 3.275748 -1.159657 -0.323405 0
M  V30 7 N 4.161952 -0.149597 -0.799107 0
M  V30 8 S 3.425207 1.244780 -1.543705 0
M  V30 9 O 4.511208 2.187655 -1.923716 0
M  V30 10 O 2.606166 0.850727 -2.723958 0
M  V30 11 C 2.435767 1.979662 -0.288710 0
M  V30 12 C 2.876253 2.941550 0.588755 0
M  V30 13 C 2.018319 3.463808 1.548875 0
M  V30 14 C 0.709112 3.049809 1.664840 0
M  V30 15 C 0.227381 2.084541 0.801795 0
M  V30 16 N -1.111776 1.545162 0.791324 0
M  V30 17 C -1.389315 0.394143 1.590874 0
M  V30 18 O -0.370451 -0.003411 2.222107 0
M  V30 19 C -2.718467 -0.219760 1.641098 0
M  V30 20 C -3.848318 0.202291 0.955600 0
M  V30 21 C -5.036452 -0.485367 1.107650 0
M  V30 22 C -5.069876 -1.586725 1.946673 0
M  V30 23 Cl -6.630093 -2.378575 2.060584 0
M  V30 24 N -3.978664 -2.009743 2.620608 0
M  V30 25 C -2.799455 -1.336545 2.476870 0
M  V30 26 C 1.119674 1.581093 -0.152516 0
M  V30 27 C 3.641373 -1.597596 0.947126 0
M  V30 28 C 2.900811 -2.583675 1.588388 0
M  V30 29 H -0.695586 -3.874960 0.601233 0
M  V30 30 H -0.612895 -5.228884 1.778480 0
M  V30 31 H 0.246670 -5.368763 0.208974 0
M  V30 32 H 0.595690 -3.095611 -0.804688 0
M  V30 33 H 1.981948 -1.304848 -1.910525 0
M  V30 34 H 5.200494 -0.236475 -0.708213 0
M  V30 35 H 3.897506 3.260500 0.493857 0
M  V30 36 H 2.352211 4.213135 2.236515 0
M  V30 37 H -0.001846 3.415844 2.386104 0
M  V30 38 H -1.874595 1.981093 0.212028 0
M  V30 39 H -3.700795 1.075305 0.329081 0
M  V30 40 H -5.878796 -0.114871 0.553515 0
M  V30 41 H -1.984979 -1.750806 3.055906 0
M  V30 42 H 0.754661 0.814806 -0.845316 0
M  V30 43 H 4.493561 -1.231851 1.528937 0
M  V30 44 H 3.171016 -2.938020 2.580049 0
M  V30 END ATOM
M  V30 BEGIN BOND
M  V30 1 1 1 2
M  V30 2 1 2 3
M  V30 3 2 3 4
M  V30 4 1 4 5
M  V30 5 2 5 6
M  V30 6 1 6 7
M  V30 7 1 7 8
M  V30 8 2 8 9
M  V30 9 2 8 10
M  V30 10 1 8 11
M  V30 11 2 11 12
M  V30 12 1 12 13
M  V30 13 2 13 14
M  V30 14 1 14 15
M  V30 15 1 15 16
M  V30 16 1 16 17
M  V30 17 2 17 18
M  V30 18 1 17 19
M  V30 19 2 19 20
M  V30 20 1 20 21
M  V30 21 2 21 22
M  V30 22 1 22 23
M  V30 23 1 22 24
M  V30 24 2 24 25
M  V30 25 2 15 26
M  V30 26 1 6 27
M  V30 27 2 27 28
M  V30 28 1 28 3
M  V30 29 1 26 11
M  V30 30 1 25 19
M  V30 31 1 1 29
M  V30 32 1 1 30
M  V30 33 1 1 31
M  V30 34 1 4 32
M  V30 35 1 5 33
M  V30 36 1 7 34
M  V30 37 1 12 35
M  V30 38 1 13 36
M  V30 39 1 14 37
M  V30 40 1 16 38
M  V30 41 1 20 39
M  V30 42 1 21 40
M  V30 43 1 25 41
M  V30 44 1 26 42
M  V30 45 1 27 43
M  V30 46 1 28 44
M  V30 END BOND
M  V30 END CTAB
M  END
>  <Dataset>  (705) 
ChEMBL_Kinases

>  <Ligand_Instance>  (705) 
nan

>  <PDB_ID>  (705) 
nan

>  <Standardized_SMILES>  (705) 
COc1ccc(NS(=O)(=O)c2cccc(NC(=O)c3ccc(Cl)nc3)c2)cc1

>  <Name>  (705) 
nan

>  <Pocket>  (705) 
nan

>  <ATP_Site>  (705) 
nan

>  <Peripheral>  (705) 
nan

>  <Num_H_Atoms_ProtBoundConf>  (705) 
nan

>  <Num_Resolved_Atoms>  (705) 
nan

>  <Num_Not_Resolved_Atoms>  (705) 
nan

$$$$
CHEMBL1441589
     RDKit          3D

  0  0  0  0  0  0  0  0  0  0999 V3000
M  V30 BEGIN CTAB
M  V30 COUNTS 36 38 0 0 0
M  V30 BEGIN ATOM
M  V30 1 C 2.815740 -3.244185 3.147018 0
M  V30 2 C 1.749709 -4.043712 2.443893 0
M  V30 3 N 0.924444 -4.808286 3.149510 0
M  V30 4 C 0.042822 -5.474191 2.608021 0
M  V30 5 S 0.216828 -5.113843 0.751983 0
M  V30 6 C 1.607109 -3.996233 1.024578 0
M  V30 7 C 2.402082 -3.232971 0.110244 0
M  V30 8 C 1.990889 -1.773958 0.167855 0
M  V30 9 S 0.245512 -1.701123 -0.292088 0
M  V30 10 C -0.411052 -0.040902 -0.281096 0
M  V30 11 N -0.333670 0.686882 -1.417916 0
M  V30 12 C -0.796074 1.946265 -1.525453 0
M  V30 13 C -0.690105 2.645634 -2.717772 0
M  V30 14 C -1.171243 3.949748 -2.822969 0
M  V30 15 C -1.763474 4.557876 -1.723965 0
M  V30 16 C -1.856440 3.840298 -0.549596 0
M  V30 17 C -1.385528 2.550591 -0.430432 0
M  V30 18 C -1.467860 1.810260 0.737463 0
M  V30 19 O -1.997852 2.329670 1.751932 0
M  V30 20 N -0.985247 0.560304 0.770145 0
M  V30 21 C -1.073349 -0.216959 2.002628 0
M  V30 22 H 3.173883 -3.752451 4.067514 0
M  V30 23 H 2.479763 -2.220286 3.318297 0
M  V30 24 H 3.731504 -3.190442 2.494416 0
M  V30 25 H -0.700552 -6.138668 3.038397 0
M  V30 26 H 3.489520 -3.374322 0.192314 0
M  V30 27 H 2.149881 -3.578345 -0.934945 0
M  V30 28 H 2.205391 -1.292040 1.121998 0
M  V30 29 H 2.644253 -1.254608 -0.587306 0
M  V30 30 H -0.227426 2.173033 -3.578046 0
M  V30 31 H -1.072136 4.469281 -3.772637 0
M  V30 32 H -2.127826 5.568900 -1.832887 0
M  V30 33 H -2.316956 4.306202 0.313174 0
M  V30 34 H -1.074384 -1.292208 1.825431 0
M  V30 35 H -1.990812 0.094333 2.575721 0
M  V30 36 H -0.213680 0.123587 2.649563 0
M  V30 END ATOM
M  V30 BEGIN BOND
M  V30 1 1 1 2
M  V30 2 1 2 3
M  V30 3 2 3 4
M  V30 4 1 4 5
M  V30 5 1 5 6
M  V30 6 1 6 7
M  V30 7 1 7 8
M  V30 8 1 8 9
M  V30 9 1 9 10
M  V30 10 2 10 11
M  V30 11 1 11 12
M  V30 12 2 12 13
M  V30 13 1 13 14
M  V30 14 2 14 15
M  V30 15 1 15 16
M  V30 16 2 16 17
M  V30 17 1 17 18
M  V30 18 2 18 19
M  V30 19 1 18 20
M  V30 20 1 20 21
M  V30 21 2 6 2
M  V30 22 1 20 10
M  V30 23 1 17 12
M  V30 24 1 1 22
M  V30 25 1 1 23
M  V30 26 1 1 24
M  V30 27 1 4 25
M  V30 28 1 7 26
M  V30 29 1 7 27
M  V30 30 1 8 28
M  V30 31 1 8 29
M  V30 32 1 13 30
M  V30 33 1 14 31
M  V30 34 1 15 32
M  V30 35 1 16 33
M  V30 36 1 21 34
M  V30 37 1 21 35
M  V30 38 1 21 36
M  V30 END BOND
M  V30 END CTAB
M  END
>  <Dataset>  (706) 
ChEMBL_Kinases

>  <Ligand_Instance>  (706) 
nan

>  <PDB_ID>  (706) 
nan

>  <Standardized_SMILES>  (706) 
Cc1ncsc1CCSc1nc2ccccc2c(=O)n1C

>  <Name>  (706) 
nan

>  <Pocket>  (706) 
nan

>  <ATP_Site>  (706) 
nan

>  <Peripheral>  (706) 
nan

>  <Num_H_Atoms_ProtBoundConf>  (706) 
nan

>  <Num_Resolved_Atoms>  (706) 
nan

>  <Num_Not_Resolved_Atoms>  (706) 
nan

$$$$
CHEMBL1441531
     RDKit          3D

  0  0  0  0  0  0  0  0  0  0999 V3000
M  V30 BEGIN CTAB
M  V30 COUNTS 39 40 0 0 0
M  V30 BEGIN ATOM
M  V30 1 C -0.976807 -3.965531 5.416390 0
M  V30 2 C 0.393328 -4.384418 4.973857 0
M  V30 3 O 1.203629 -3.350251 4.502616 0
M  V30 4 C 0.937103 -2.535998 3.439172 0
M  V30 5 O -0.150707 -2.817941 2.904054 0
M  V30 6 N 1.876142 -1.536373 3.102905 0
M  V30 7 C 1.721676 -0.624064 2.021730 0
M  V30 8 C 2.208061 -0.960625 0.773503 0
M  V30 9 C 2.044843 -0.057541 -0.257140 0
M  V30 10 C 1.416688 1.186189 -0.129304 0
M  V30 11 S 1.310400 2.181370 -1.544000 0
M  V30 12 O 1.458037 3.627513 -1.183180 0
M  V30 13 O 2.484604 1.876953 -2.465425 0
M  V30 14 N -0.103501 1.935370 -2.472437 0
M  V30 15 C -1.323354 2.230012 -1.769247 0
M  V30 16 C -1.820502 1.138221 -0.884889 0
M  V30 17 O -1.102176 -0.044014 -1.051554 0
M  V30 18 C -0.949197 -0.341813 -2.386936 0
M  V30 19 C -0.172762 0.688163 -3.159321 0
M  V30 20 C 0.945996 1.482244 1.133060 0
M  V30 21 C 1.093157 0.599231 2.188457 0
M  V30 22 H -0.957901 -3.049955 6.045067 0
M  V30 23 H -1.723833 -3.924175 4.601909 0
M  V30 24 H -1.340898 -4.771543 6.116926 0
M  V30 25 H 0.899442 -4.855026 5.838593 0
M  V30 26 H 0.252537 -5.200828 4.218603 0
M  V30 27 H 2.758745 -1.429763 3.666006 0
M  V30 28 H 2.705091 -1.905095 0.599579 0
M  V30 29 H 2.437323 -0.355358 -1.216258 0
M  V30 30 H -2.102190 2.393140 -2.570118 0
M  V30 31 H -1.242667 3.215192 -1.262802 0
M  V30 32 H -1.796760 1.377554 0.202556 0
M  V30 33 H -2.890113 0.858340 -1.114902 0
M  V30 34 H -1.911853 -0.593074 -2.879319 0
M  V30 35 H -0.354512 -1.291610 -2.450267 0
M  V30 36 H 0.853692 0.353564 -3.408794 0
M  V30 37 H -0.653551 0.863351 -4.164749 0
M  V30 38 H 0.461249 2.447500 1.221711 0
M  V30 39 H 0.698507 0.900285 3.150059 0
M  V30 END ATOM
M  V30 BEGIN BOND
M  V30 1 1 1 2
M  V30 2 1 2 3
M  V30 3 1 3 4
M  V30 4 2 4 5
M  V30 5 1 4 6
M  V30 6 1 6 7
M  V30 7 2 7 8
M  V30 8 1 8 9
M  V30 9 2 9 10
M  V30 10 1 10 11
M  V30 11 2 11 12
M  V30 12 2 11 13
M  V30 13 1 11 14
M  V30 14 1 14 15
M  V30 15 1 15 16
M  V30 16 1 16 17
M  V30 17 1 17 18
M  V30 18 1 18 19
M  V30 19 1 10 20
M  V30 20 2 20 21
M  V30 21 1 21 7
M  V30 22 1 19 14
M  V30 23 1 1 22
M  V30 24 1 1 23
M  V30 25 1 1 24
M  V30 26 1 2 25
M  V30 27 1 2 26
M  V30 28 1 6 27
M  V30 29 1 8 28
M  V30 30 1 9 29
M  V30 31 1 15 30
M  V30 32 1 15 31
M  V30 33 1 16 32
M  V30 34 1 16 33
M  V30 35 1 18 34
M  V30 36 1 18 35
M  V30 37 1 19 36
M  V30 38 1 19 37
M  V30 39 1 20 38
M  V30 40 1 21 39
M  V30 END BOND
M  V30 END CTAB
M  END
>  <Dataset>  (707) 
ChEMBL_Kinases

>  <Ligand_Instance>  (707) 
nan

>  <PDB_ID>  (707) 
nan

>  <Standardized_SMILES>  (707) 
CCOC(=O)Nc1ccc(S(=O)(=O)N2CCOCC2)cc1

>  <Name>  (707) 
nan

>  <Pocket>  (707) 
nan

>  <ATP_Site>  (707) 
nan

>  <Peripheral>  (707) 
nan

>  <Num_H_Atoms_ProtBoundConf>  (707) 
nan

>  <Num_Resolved_Atoms>  (707) 
nan

>  <Num_Not_Resolved_Atoms>  (707) 
nan

$$$$
CHEMBL1441523
     RDKit          3D

  0  0  0  0  0  0  0  0  0  0999 V3000
M  V30 BEGIN CTAB
M  V30 COUNTS 55 59 0 0 0
M  V30 BEGIN ATOM
M  V30 1 C -1.004833 -3.200182 7.111908 0
M  V30 2 O 0.410484 -3.170532 7.148515 0
M  V30 3 C 1.149149 -2.877175 6.026610 0
M  V30 4 C 2.528573 -2.870032 6.151848 0
M  V30 5 C 3.314216 -2.576109 5.032819 0
M  V30 6 C 2.714828 -2.295267 3.812448 0
M  V30 7 C 1.356241 -2.297864 3.670902 0
M  V30 8 C 0.629075 -2.017461 2.437384 0
M  V30 9 C 1.272492 -1.712469 1.254548 0
M  V30 10 C 0.635134 -1.437949 0.054592 0
M  V30 11 C 1.365466 -1.123150 -1.158804 0
M  V30 12 O 1.487812 -2.314685 -1.607287 0
M  V30 13 N 1.688455 0.242229 -1.453713 0
M  V30 14 C 1.289133 1.319232 -0.544402 0
M  V30 15 C 0.637088 2.383385 -1.400731 0
M  V30 16 N 0.357201 1.880833 -2.731885 0
M  V30 17 C -0.915781 1.645389 -3.318846 0
M  V30 18 N -1.182435 1.174635 -4.552980 0
M  V30 19 C -2.484218 1.022503 -4.921153 0
M  V30 20 C -3.528397 1.333811 -4.074257 0
M  V30 21 C -3.224723 1.820089 -2.800137 0
M  V30 22 N -1.929690 1.940488 -2.515424 0
M  V30 23 C 1.632770 1.653917 -3.380167 0
M  V30 24 C 2.418103 0.582258 -2.659659 0
M  V30 25 C -0.763600 -1.475302 0.052714 0
M  V30 26 C -1.473412 -1.214067 -1.100844 0
M  V30 27 C -2.848361 -1.270198 -1.022962 0
M  V30 28 C -3.514346 -1.572833 0.147644 0
M  V30 29 C -2.785481 -1.835784 1.310297 0
M  V30 30 C -1.392432 -1.781451 1.241904 0
M  V30 31 N -0.735924 -2.044346 2.396152 0
M  V30 32 C 0.626168 -2.593629 4.803558 0
M  V30 33 H -1.367570 -3.827158 6.247191 0
M  V30 34 H -1.319285 -3.695897 8.053400 0
M  V30 35 H -1.449432 -2.188310 7.060937 0
M  V30 36 H 2.991421 -3.090819 7.110270 0
M  V30 37 H 4.407234 -2.561492 5.095082 0
M  V30 38 H 3.311888 -2.067299 2.943145 0
M  V30 39 H 2.333633 -1.670648 1.200173 0
M  V30 40 H 2.252677 1.762130 -0.172193 0
M  V30 41 H 0.648223 0.964914 0.259619 0
M  V30 42 H -0.345441 2.628987 -0.917407 0
M  V30 43 H 1.249770 3.312952 -1.465721 0
M  V30 44 H -2.702915 0.650915 -5.895109 0
M  V30 45 H -4.569330 1.224125 -4.337118 0
M  V30 46 H -4.025029 2.073428 -2.112070 0
M  V30 47 H 2.241844 2.590870 -3.428778 0
M  V30 48 H 1.440633 1.342336 -4.431712 0
M  V30 49 H 2.515421 -0.343396 -3.281415 0
M  V30 50 H 3.410619 0.944283 -2.325802 0
M  V30 51 H -0.943752 -0.975689 -2.022284 0
M  V30 52 H -3.422468 -1.063462 -1.936976 0
M  V30 53 H -4.598886 -1.595154 0.118561 0
M  V30 54 H -3.377742 -2.065120 2.187944 0
M  V30 55 H -0.465185 -2.609718 4.746916 0
M  V30 END ATOM
M  V30 BEGIN BOND
M  V30 1 1 1 2
M  V30 2 1 2 3
M  V30 3 2 3 4
M  V30 4 1 4 5
M  V30 5 2 5 6
M  V30 6 1 6 7
M  V30 7 1 7 8
M  V30 8 2 8 9
M  V30 9 1 9 10
M  V30 10 1 10 11
M  V30 11 2 11 12
M  V30 12 1 11 13
M  V30 13 1 13 14
M  V30 14 1 14 15
M  V30 15 1 15 16
M  V30 16 1 16 17
M  V30 17 2 17 18
M  V30 18 1 18 19
M  V30 19 2 19 20
M  V30 20 1 20 21
M  V30 21 2 21 22
M  V30 22 1 16 23
M  V30 23 1 23 24
M  V30 24 2 10 25
M  V30 25 1 25 26
M  V30 26 2 26 27
M  V30 27 1 27 28
M  V30 28 2 28 29
M  V30 29 1 29 30
M  V30 30 2 30 31
M  V30 31 2 7 32
M  V30 32 1 32 3
M  V30 33 1 31 8
M  V30 34 1 24 13
M  V30 35 1 30 25
M  V30 36 1 22 17
M  V30 37 1 1 33
M  V30 38 1 1 34
M  V30 39 1 1 35
M  V30 40 1 4 36
M  V30 41 1 5 37
M  V30 42 1 6 38
M  V30 43 1 9 39
M  V30 44 1 14 40
M  V30 45 1 14 41
M  V30 46 1 15 42
M  V30 47 1 15 43
M  V30 48 1 19 44
M  V30 49 1 20 45
M  V30 50 1 21 46
M  V30 51 1 23 47
M  V30 52 1 23 48
M  V30 53 1 24 49
M  V30 54 1 24 50
M  V30 55 1 26 51
M  V30 56 1 27 52
M  V30 57 1 28 53
M  V30 58 1 29 54
M  V30 59 1 32 55
M  V30 END BOND
M  V30 END CTAB
M  END
>  <Dataset>  (708) 
ChEMBL_Kinases

>  <Ligand_Instance>  (708) 
nan

>  <PDB_ID>  (708) 
nan

>  <Standardized_SMILES>  (708) 
COc1cccc(-c2cc(C(=O)N3CCN(c4ncccn4)CC3)c3ccccc3n2)c1

>  <Name>  (708) 
nan

>  <Pocket>  (708) 
nan

>  <ATP_Site>  (708) 
nan

>  <Peripheral>  (708) 
nan

>  <Num_H_Atoms_ProtBoundConf>  (708) 
nan

>  <Num_Resolved_Atoms>  (708) 
nan

>  <Num_Not_Resolved_Atoms>  (708) 
nan

$$$$
CHEMBL1441404
     RDKit          3D

  0  0  0  0  0  0  0  0  0  0999 V3000
M  V30 BEGIN CTAB
M  V30 COUNTS 51 54 0 0 0
M  V30 BEGIN ATOM
M  V30 1 N 0.353323 -1.602892 0.750307 0
M  V30 2 C -0.362000 -0.551388 0.771188 0
M  V30 3 N 0.061025 0.713623 0.469569 0
M  V30 4 C 1.459231 0.958821 0.067385 0
M  V30 5 C 2.342216 1.200376 1.217772 0
M  V30 6 N 3.705080 1.451193 0.986498 0
M  V30 7 C 4.441094 1.603035 2.250444 0
M  V30 8 C 4.633264 0.268828 2.893734 0
M  V30 9 O 4.303271 -0.827002 2.164944 0
M  V30 10 C 4.533506 -0.821912 0.825239 0
M  V30 11 C 4.466288 0.553441 0.198342 0
M  V30 12 C -1.024892 1.522519 0.619140 0
M  V30 13 C -1.068269 2.877073 0.420511 0
M  V30 14 C -2.304109 3.479035 0.637978 0
M  V30 15 C -3.395719 2.742552 1.026494 0
M  V30 16 C -3.242108 1.387637 1.197521 0
M  V30 17 C -2.066206 0.703295 1.007866 0
M  V30 18 N -1.649235 -0.575445 1.099693 0
M  V30 19 C -2.605835 -1.574581 1.495196 0
M  V30 20 C -3.266010 -2.155524 0.310805 0
M  V30 21 O -4.114453 -1.382577 -0.236835 0
M  V30 22 C -3.083233 -3.482080 -0.310662 0
M  V30 23 C -3.810018 -3.727889 -1.451588 0
M  V30 24 C -3.672447 -4.985238 -2.053737 0
M  V30 25 C -2.812095 -5.911398 -1.467731 0
M  V30 26 Cl -2.621371 -7.496192 -2.199397 0
M  V30 27 C -2.098460 -5.631347 -0.323508 0
M  V30 28 Cl -1.017542 -6.818051 0.405600 0
M  V30 29 C -2.230025 -4.379129 0.284067 0
M  V30 30 H 0.024659 -2.558092 0.981091 0
M  V30 31 H 1.400773 1.888356 -0.574306 0
M  V30 32 H 1.730049 0.161193 -0.614119 0
M  V30 33 H 1.944512 2.085864 1.788363 0
M  V30 34 H 2.229459 0.333083 1.916927 0
M  V30 35 H 5.437451 2.037203 1.992135 0
M  V30 36 H 3.861524 2.296516 2.904830 0
M  V30 37 H 3.995059 0.245423 3.816903 0
M  V30 38 H 5.680951 0.224589 3.314023 0
M  V30 39 H 5.461936 -1.377838 0.583751 0
M  V30 40 H 3.699818 -1.409152 0.338900 0
M  V30 41 H 4.228226 0.525341 -0.884164 0
M  V30 42 H 5.527998 0.936651 0.237320 0
M  V30 43 H -0.196137 3.441785 0.111894 0
M  V30 44 H -2.360337 4.554518 0.484793 0
M  V30 45 H -4.357862 3.194423 1.198533 0
M  V30 46 H -4.131164 0.818347 1.510401 0
M  V30 47 H -2.075954 -2.414880 2.029393 0
M  V30 48 H -3.340246 -1.193570 2.237821 0
M  V30 49 H -4.479175 -3.023584 -1.919899 0
M  V30 50 H -4.231188 -5.225025 -2.963558 0
M  V30 51 H -1.656921 -4.206643 1.176791 0
M  V30 END ATOM
M  V30 BEGIN BOND
M  V30 1 2 1 2 CFG=2
M  V30 2 1 2 3
M  V30 3 1 3 4
M  V30 4 1 4 5
M  V30 5 1 5 6
M  V30 6 1 6 7
M  V30 7 1 7 8
M  V30 8 1 8 9
M  V30 9 1 9 10
M  V30 10 1 10 11
M  V30 11 1 3 12
M  V30 12 2 12 13
M  V30 13 1 13 14
M  V30 14 2 14 15
M  V30 15 1 15 16
M  V30 16 2 16 17
M  V30 17 1 17 18
M  V30 18 1 18 19
M  V30 19 1 19 20
M  V30 20 2 20 21
M  V30 21 1 20 22
M  V30 22 2 22 23
M  V30 23 1 23 24
M  V30 24 2 24 25
M  V30 25 1 25 26
M  V30 26 1 25 27
M  V30 27 1 27 28
M  V30 28 2 27 29
M  V30 29 1 18 2
M  V30 30 1 29 22
M  V30 31 1 11 6
M  V30 32 1 17 12
M  V30 33 1 1 30
M  V30 34 1 4 31
M  V30 35 1 4 32
M  V30 36 1 5 33
M  V30 37 1 5 34
M  V30 38 1 7 35
M  V30 39 1 7 36
M  V30 40 1 8 37
M  V30 41 1 8 38
M  V30 42 1 10 39
M  V30 43 1 10 40
M  V30 44 1 11 41
M  V30 45 1 11 42
M  V30 46 1 13 43
M  V30 47 1 14 44
M  V30 48 1 15 45
M  V30 49 1 16 46
M  V30 50 1 19 47
M  V30 51 1 19 48
M  V30 52 1 23 49
M  V30 53 1 24 50
M  V30 54 1 29 51
M  V30 END BOND
M  V30 END CTAB
M  END
>  <Dataset>  (709) 
ChEMBL_Kinases

>  <Ligand_Instance>  (709) 
nan

>  <PDB_ID>  (709) 
nan

>  <Standardized_SMILES>  (709) 
N=c1n(CCN2CCOCC2)c2ccccc2n1CC(=O)c1ccc(Cl)c(Cl)c1

>  <Name>  (709) 
nan

>  <Pocket>  (709) 
nan

>  <ATP_Site>  (709) 
nan

>  <Peripheral>  (709) 
nan

>  <Num_H_Atoms_ProtBoundConf>  (709) 
nan

>  <Num_Resolved_Atoms>  (709) 
nan

>  <Num_Not_Resolved_Atoms>  (709) 
nan

$$$$
CHEMBL1441164
     RDKit          3D

  0  0  0  0  0  0  0  0  0  0999 V3000
M  V30 BEGIN CTAB
M  V30 COUNTS 42 44 0 0 0
M  V30 BEGIN ATOM
M  V30 1 C -0.640679 -2.277038 3.363548 0
M  V30 2 C 0.677893 -2.543027 3.380503 0
M  V30 3 C 1.625653 -1.554937 3.923190 0
M  V30 4 S 2.845727 -0.930125 2.794375 0
M  V30 5 C 2.228103 0.102447 1.491235 0
M  V30 6 N 2.134868 1.372645 1.993967 0
M  V30 7 C 1.691864 2.219888 1.031491 0
M  V30 8 C 1.537753 1.374013 -0.043623 0
M  V30 9 C 1.095694 1.940773 -1.219120 0
M  V30 10 O 0.929716 1.270475 -2.241263 0
M  V30 11 N 0.821586 3.245719 -1.331125 0
M  V30 12 C 0.971714 4.087083 -0.264610 0
M  V30 13 O 0.736430 5.325457 -0.280973 0
M  V30 14 N 1.404034 3.531589 0.878495 0
M  V30 15 C 1.596152 4.349202 2.066291 0
M  V30 16 N 1.854466 0.092381 0.208465 0
M  V30 17 C 1.876377 -1.109409 -0.573507 0
M  V30 18 C 0.649025 -1.928159 -0.563629 0
M  V30 19 C -0.548305 -1.690714 -1.200555 0
M  V30 20 C -1.647229 -2.519314 -1.170675 0
M  V30 21 C -1.565256 -3.691219 -0.448808 0
M  V30 22 C -2.769951 -4.574917 -0.422268 0
M  V30 23 C -0.417765 -4.032945 0.228493 0
M  V30 24 C 0.638781 -3.119633 0.131589 0
M  V30 25 H -1.673364 -2.447871 3.180616 0
M  V30 26 H -1.362788 -2.966356 2.979868 0
M  V30 27 H 1.011843 -3.492766 2.990928 0
M  V30 28 H 2.188164 -2.099387 4.743872 0
M  V30 29 H 1.067025 -0.745039 4.455933 0
M  V30 30 H 0.484577 3.699814 -2.211879 0
M  V30 31 H 1.999009 5.319901 1.757199 0
M  V30 32 H 2.254482 3.873034 2.811368 0
M  V30 33 H 0.574938 4.507032 2.514566 0
M  V30 34 H 2.107918 -0.868876 -1.639653 0
M  V30 35 H 2.730472 -1.763057 -0.257548 0
M  V30 36 H -0.662121 -0.795361 -1.775067 0
M  V30 37 H -2.547467 -2.264116 -1.693944 0
M  V30 38 H -3.503905 -4.146035 0.323961 0
M  V30 39 H -2.465196 -5.541625 0.038555 0
M  V30 40 H -3.278802 -4.656321 -1.386804 0
M  V30 41 H -0.321717 -4.936512 0.797238 0
M  V30 42 H 1.535174 -3.409238 0.671017 0
M  V30 END ATOM
M  V30 BEGIN BOND
M  V30 1 2 1 2
M  V30 2 1 2 3
M  V30 3 1 3 4
M  V30 4 1 4 5
M  V30 5 2 5 6
M  V30 6 1 6 7
M  V30 7 2 7 8
M  V30 8 1 8 9
M  V30 9 2 9 10
M  V30 10 1 9 11
M  V30 11 1 11 12
M  V30 12 2 12 13
M  V30 13 1 12 14
M  V30 14 1 14 15
M  V30 15 1 8 16
M  V30 16 1 16 17
M  V30 17 1 17 18
M  V30 18 2 18 19
M  V30 19 1 19 20
M  V30 20 2 20 21
M  V30 21 1 21 22
M  V30 22 1 21 23
M  V30 23 2 23 24
M  V30 24 1 16 5
M  V30 25 1 24 18
M  V30 26 1 14 7
M  V30 27 1 1 25
M  V30 28 1 1 26
M  V30 29 1 2 27
M  V30 30 1 3 28
M  V30 31 1 3 29
M  V30 32 1 11 30
M  V30 33 1 15 31
M  V30 34 1 15 32
M  V30 35 1 15 33
M  V30 36 1 17 34
M  V30 37 1 17 35
M  V30 38 1 19 36
M  V30 39 1 20 37
M  V30 40 1 22 38
M  V30 41 1 22 39
M  V30 42 1 22 40
M  V30 43 1 23 41
M  V30 44 1 24 42
M  V30 END BOND
M  V30 END CTAB
M  END
>  <Dataset>  (710) 
ChEMBL_Kinases

>  <Ligand_Instance>  (710) 
nan

>  <PDB_ID>  (710) 
nan

>  <Standardized_SMILES>  (710) 
C=CCSc1nc2c(c(=O)[nH]c(=O)n2C)n1Cc1ccc(C)cc1

>  <Name>  (710) 
nan

>  <Pocket>  (710) 
nan

>  <ATP_Site>  (710) 
nan

>  <Peripheral>  (710) 
nan

>  <Num_H_Atoms_ProtBoundConf>  (710) 
nan

>  <Num_Resolved_Atoms>  (710) 
nan

>  <Num_Not_Resolved_Atoms>  (710) 
nan

$$$$
CHEMBL1440841
     RDKit          3D

  0  0  0  0  0  0  0  0  0  0999 V3000
M  V30 BEGIN CTAB
M  V30 COUNTS 51 54 0 0 0
M  V30 BEGIN ATOM
M  V30 1 C 3.467384 -5.746672 2.248753 0
M  V30 2 C 3.543873 -4.287371 1.965676 0
M  V30 3 C 3.514147 -3.429501 3.045149 0
M  V30 4 C 3.584891 -2.095965 2.757214 0
M  V30 5 C 3.557934 -1.099990 3.876746 0
M  V30 6 N 3.679555 -1.636111 1.477889 0
M  V30 7 C 3.707804 -2.473965 0.437225 0
M  V30 8 N 3.805389 -2.006012 -0.898079 0
M  V30 9 S 3.892155 -0.322063 -1.251498 0
M  V30 10 O 4.127984 -0.172593 -2.734084 0
M  V30 11 O 5.135887 0.236470 -0.572778 0
M  V30 12 C 2.488071 0.554776 -0.730989 0
M  V30 13 C 1.467022 0.628379 -1.657878 0
M  V30 14 C 0.275655 1.290426 -1.407626 0
M  V30 15 C 0.158328 1.891309 -0.144769 0
M  V30 16 N -1.046439 2.579614 0.153461 0
M  V30 17 C -1.959691 1.667908 0.737820 0
M  V30 18 O -1.626211 0.478097 0.905069 0
M  V30 19 C -3.352675 2.030690 1.190820 0
M  V30 20 C -4.158072 2.567403 0.064372 0
M  V30 21 O -5.289907 1.761776 -0.154158 0
M  V30 22 C -5.186771 0.396295 -0.166210 0
M  V30 23 C -5.748084 -0.470724 -1.101356 0
M  V30 24 C -5.553532 -1.848676 -0.978472 0
M  V30 25 C -4.800628 -2.348831 0.076587 0
M  V30 26 C -4.246245 -1.469546 1.003103 0
M  V30 27 C -4.441091 -0.099135 0.878724 0
M  V30 28 O -3.956788 0.875198 1.713885 0
M  V30 29 C 1.149034 1.840802 0.802770 0
M  V30 30 C 2.313075 1.165816 0.493173 0
M  V30 31 N 3.638173 -3.774643 0.728671 0
M  V30 32 H 3.941404 -6.363794 1.466299 0
M  V30 33 H 3.939094 -5.946881 3.225761 0
M  V30 34 H 2.408431 -6.085409 2.365872 0
M  V30 35 H 3.440020 -3.785439 4.050792 0
M  V30 36 H 3.548467 -0.065407 3.476272 0
M  V30 37 H 4.390015 -1.263854 4.575639 0
M  V30 38 H 2.615178 -1.207330 4.484879 0
M  V30 39 H 3.822760 -2.734449 -1.671090 0
M  V30 40 H 1.520932 0.177974 -2.640928 0
M  V30 41 H -0.522710 1.341243 -2.147667 0
M  V30 42 H -1.362894 3.573157 0.028634 0
M  V30 43 H -3.269389 2.750920 2.037104 0
M  V30 44 H -3.513407 2.550308 -0.862196 0
M  V30 45 H -4.451535 3.642368 0.218420 0
M  V30 46 H -6.331376 -0.044154 -1.911853 0
M  V30 47 H -6.004151 -2.486340 -1.722268 0
M  V30 48 H -4.641012 -3.402481 0.186505 0
M  V30 49 H -3.645520 -1.831252 1.851860 0
M  V30 50 H 1.096569 2.283276 1.769174 0
M  V30 51 H 3.126598 1.087674 1.184242 0
M  V30 END ATOM
M  V30 BEGIN BOND
M  V30 1 1 1 2
M  V30 2 2 2 3
M  V30 3 1 3 4
M  V30 4 1 4 5
M  V30 5 2 4 6
M  V30 6 1 6 7
M  V30 7 1 7 8
M  V30 8 1 8 9
M  V30 9 2 9 10
M  V30 10 2 9 11
M  V30 11 1 9 12
M  V30 12 2 12 13
M  V30 13 1 13 14
M  V30 14 2 14 15
M  V30 15 1 15 16
M  V30 16 1 16 17
M  V30 17 2 17 18
M  V30 18 1 17 19
M  V30 19 1 19 20
M  V30 20 1 20 21
M  V30 21 1 21 22
M  V30 22 2 22 23
M  V30 23 1 23 24
M  V30 24 2 24 25
M  V30 25 1 25 26
M  V30 26 2 26 27
M  V30 27 1 27 28
M  V30 28 1 15 29
M  V30 29 2 29 30
M  V30 30 2 7 31
M  V30 31 1 31 2
M  V30 32 1 30 12
M  V30 33 1 28 19
M  V30 34 1 27 22
M  V30 35 1 1 32
M  V30 36 1 1 33
M  V30 37 1 1 34
M  V30 38 1 3 35
M  V30 39 1 5 36
M  V30 40 1 5 37
M  V30 41 1 5 38
M  V30 42 1 8 39
M  V30 43 1 13 40
M  V30 44 1 14 41
M  V30 45 1 16 42
M  V30 46 1 19 43
M  V30 47 1 20 44
M  V30 48 1 20 45
M  V30 49 1 23 46
M  V30 50 1 24 47
M  V30 51 1 25 48
M  V30 52 1 26 49
M  V30 53 1 29 50
M  V30 54 1 30 51
M  V30 END BOND
M  V30 END CTAB
M  END
>  <Dataset>  (711) 
ChEMBL_Kinases

>  <Ligand_Instance>  (711) 
nan

>  <PDB_ID>  (711) 
nan

>  <Standardized_SMILES>  (711) 
Cc1cc(C)nc(NS(=O)(=O)c2ccc(NC(=O)C3COc4ccccc4O3)cc2)n1

>  <Name>  (711) 
nan

>  <Pocket>  (711) 
nan

>  <ATP_Site>  (711) 
nan

>  <Peripheral>  (711) 
nan

>  <Num_H_Atoms_ProtBoundConf>  (711) 
nan

>  <Num_Resolved_Atoms>  (711) 
nan

>  <Num_Not_Resolved_Atoms>  (711) 
nan

$$$$
CHEMBL1440679
     RDKit          3D

  0  0  0  0  0  0  0  0  0  0999 V3000
M  V30 BEGIN CTAB
M  V30 COUNTS 29 30 0 0 0
M  V30 BEGIN ATOM
M  V30 1 C -3.212834 0.083228 2.524403 0
M  V30 2 C -1.846709 0.154760 1.911332 0
M  V30 3 C -1.461953 -0.788939 0.981518 0
M  V30 4 C -0.214417 -0.771017 0.382554 0
M  V30 5 C 0.209039 -1.755269 -0.609395 0
M  V30 6 C 0.093555 -3.129138 -0.554283 0
M  V30 7 C 0.544917 -3.921070 -1.589826 0
M  V30 8 C 1.119996 -3.314004 -2.693981 0
M  V30 9 N 1.225264 -1.968012 -2.731540 0
M  V30 10 C 0.792144 -1.167831 -1.732409 0
M  V30 11 C 0.662419 0.236961 0.743613 0
M  V30 12 C 1.990622 0.370107 0.203774 0
M  V30 13 N 3.060724 0.465117 -0.230767 0
M  V30 14 C 0.264341 1.183542 1.681986 0
M  V30 15 S 1.394071 2.502034 2.158927 0
M  V30 16 C 2.354243 1.859742 3.575036 0
M  V30 17 C 3.220171 0.741500 3.168470 0
M  V30 18 N 3.887350 -0.151947 2.853370 0
M  V30 19 N -0.960823 1.135049 2.245627 0
M  V30 20 H -3.911032 -0.235711 1.737634 0
M  V30 21 H -3.481139 1.040624 3.008133 0
M  V30 22 H -3.135945 -0.735789 3.296637 0
M  V30 23 H -2.148520 -1.585523 0.691812 0
M  V30 24 H -0.366742 -3.491350 0.345194 0
M  V30 25 H 0.438926 -4.989510 -1.512532 0
M  V30 26 H 1.481550 -3.941356 -3.522000 0
M  V30 27 H 0.982432 -0.141298 -1.990681 0
M  V30 28 H 3.053138 2.685837 3.893006 0
M  V30 29 H 1.688108 1.576864 4.413082 0
M  V30 END ATOM
M  V30 BEGIN BOND
M  V30 1 1 1 2
M  V30 2 2 2 3
M  V30 3 1 3 4
M  V30 4 1 4 5
M  V30 5 2 5 6
M  V30 6 1 6 7
M  V30 7 2 7 8
M  V30 8 1 8 9
M  V30 9 2 9 10
M  V30 10 2 4 11
M  V30 11 1 11 12
M  V30 12 3 12 13
M  V30 13 1 11 14
M  V30 14 1 14 15
M  V30 15 1 15 16
M  V30 16 1 16 17
M  V30 17 3 17 18
M  V30 18 2 14 19
M  V30 19 1 19 2
M  V30 20 1 10 5
M  V30 21 1 1 20
M  V30 22 1 1 21
M  V30 23 1 1 22
M  V30 24 1 3 23
M  V30 25 1 6 24
M  V30 26 1 7 25
M  V30 27 1 8 26
M  V30 28 1 10 27
M  V30 29 1 16 28
M  V30 30 1 16 29
M  V30 END BOND
M  V30 END CTAB
M  END
>  <Dataset>  (712) 
ChEMBL_Kinases

>  <Ligand_Instance>  (712) 
nan

>  <PDB_ID>  (712) 
nan

>  <Standardized_SMILES>  (712) 
Cc1cc(-c2cccnc2)c(C#N)c(SCC#N)n1

>  <Name>  (712) 
nan

>  <Pocket>  (712) 
nan

>  <ATP_Site>  (712) 
nan

>  <Peripheral>  (712) 
nan

>  <Num_H_Atoms_ProtBoundConf>  (712) 
nan

>  <Num_Resolved_Atoms>  (712) 
nan

>  <Num_Not_Resolved_Atoms>  (712) 
nan

$$$$
CHEMBL1440672
     RDKit          3D

  0  0  0  0  0  0  0  0  0  0999 V3000
M  V30 BEGIN CTAB
M  V30 COUNTS 39 41 0 0 0
M  V30 BEGIN ATOM
M  V30 1 O -1.789574 -3.750093 2.689578 0
M  V30 2 C -0.954400 -3.607744 1.765142 0
M  V30 3 C 0.238217 -4.524708 1.757504 0
M  V30 4 S 1.724598 -3.639584 2.309363 0
M  V30 5 C 2.181451 -2.386427 1.087733 0
M  V30 6 N 3.039144 -2.876252 0.140096 0
M  V30 7 C 3.293668 -1.855983 -0.705073 0
M  V30 8 N 2.622457 -0.763418 -0.306912 0
M  V30 9 C 2.415848 0.593261 -0.687054 0
M  V30 10 C 1.840775 0.664623 -1.949271 0
M  V30 11 C 1.547738 1.882845 -2.519029 0
M  V30 12 C 1.842563 3.027244 -1.798667 0
M  V30 13 C 2.418112 2.940384 -0.536095 0
M  V30 14 C 2.715651 1.720304 0.043341 0
M  V30 15 N 1.928407 -1.076002 0.803910 0
M  V30 16 N -1.149360 -2.610987 0.776905 0
M  V30 17 C -2.253133 -1.677393 0.679425 0
M  V30 18 C -2.099359 -0.602381 1.689761 0
M  V30 19 C -1.378985 0.545912 1.485547 0
M  V30 20 C -1.249416 1.556458 2.445315 0
M  V30 21 C -1.908477 1.334430 3.659792 0
M  V30 22 C -2.628752 0.175289 3.848806 0
M  V30 23 C -2.740848 -0.803331 2.889045 0
M  V30 24 H 0.077635 -5.351729 2.480197 0
M  V30 25 H 0.360677 -4.975439 0.769449 0
M  V30 26 H 3.884343 -1.667344 -1.612046 0
M  V30 27 H 1.571645 -0.172255 -2.597034 0
M  V30 28 H 1.098227 2.033107 -3.502683 0
M  V30 29 H 1.641727 4.029267 -2.182433 0
M  V30 30 H 2.676566 3.809730 0.088781 0
M  V30 31 H 3.158155 1.540409 1.009361 0
M  V30 32 H -0.363860 -2.599085 0.062166 0
M  V30 33 H -2.172335 -1.185325 -0.331621 0
M  V30 34 H -3.240235 -2.194191 0.757459 0
M  V30 35 H -0.889514 0.676133 0.537641 0
M  V30 36 H -0.666653 2.444710 2.227869 0
M  V30 37 H -1.782777 2.145011 4.381402 0
M  V30 38 H -3.070695 0.178074 4.849394 0
M  V30 39 H -3.352264 -1.618325 3.239050 0
M  V30 END ATOM
M  V30 BEGIN BOND
M  V30 1 2 1 2
M  V30 2 1 2 3
M  V30 3 1 3 4
M  V30 4 1 4 5
M  V30 5 1 5 6
M  V30 6 2 6 7
M  V30 7 1 7 8
M  V30 8 1 8 9
M  V30 9 2 9 10
M  V30 10 1 10 11
M  V30 11 2 11 12
M  V30 12 1 12 13
M  V30 13 2 13 14
M  V30 14 1 8 15
M  V30 15 1 2 16
M  V30 16 1 16 17
M  V30 17 1 17 18
M  V30 18 2 18 19
M  V30 19 1 19 20
M  V30 20 2 20 21
M  V30 21 1 21 22
M  V30 22 2 22 23
M  V30 23 2 15 5
M  V30 24 1 23 18
M  V30 25 1 14 9
M  V30 26 1 3 24
M  V30 27 1 3 25
M  V30 28 1 7 26
M  V30 29 1 10 27
M  V30 30 1 11 28
M  V30 31 1 12 29
M  V30 32 1 13 30
M  V30 33 1 14 31
M  V30 34 1 16 32
M  V30 35 1 17 33
M  V30 36 1 17 34
M  V30 37 1 19 35
M  V30 38 1 20 36
M  V30 39 1 21 37
M  V30 40 1 22 38
M  V30 41 1 23 39
M  V30 END BOND
M  V30 END CTAB
M  END
>  <Dataset>  (713) 
ChEMBL_Kinases

>  <Ligand_Instance>  (713) 
nan

>  <PDB_ID>  (713) 
nan

>  <Standardized_SMILES>  (713) 
O=C(CSc1ncn(-c2ccccc2)n1)NCc1ccccc1

>  <Name>  (713) 
nan

>  <Pocket>  (713) 
nan

>  <ATP_Site>  (713) 
nan

>  <Peripheral>  (713) 
nan

>  <Num_H_Atoms_ProtBoundConf>  (713) 
nan

>  <Num_Resolved_Atoms>  (713) 
nan

>  <Num_Not_Resolved_Atoms>  (713) 
nan

$$$$
CHEMBL1440599
     RDKit          3D

  0  0  0  0  0  0  0  0  0  0999 V3000
M  V30 BEGIN CTAB
M  V30 COUNTS 36 37 0 0 0
M  V30 BEGIN ATOM
M  V30 1 C 0.296455 -5.214826 3.436587 0
M  V30 2 C -0.509938 -5.059358 2.399413 0
M  V30 3 C -1.520423 -4.539784 1.441036 0
M  V30 4 S -2.165677 -2.979636 2.121341 0
M  V30 5 C -0.818281 -1.803722 2.106710 0
M  V30 6 N 0.068550 -1.604844 3.099361 0
M  V30 7 C 1.046979 -0.689864 2.984216 0
M  V30 8 N 1.932340 -0.558802 4.092685 0
M  V30 9 C 1.246147 0.115916 1.882747 0
M  V30 10 C 2.297722 1.086291 1.781122 0
M  V30 11 N 3.156358 1.866622 1.716166 0
M  V30 12 C 0.345877 -0.056803 0.823952 0
M  V30 13 C 0.446036 0.735401 -0.402697 0
M  V30 14 C -0.291179 1.900821 -0.332202 0
M  V30 15 C -0.316378 2.776001 -1.402115 0
M  V30 16 C 0.394011 2.515682 -2.577356 0
M  V30 17 C 0.430859 3.382415 -3.772121 0
M  V30 18 C 1.115181 1.339505 -2.599889 0
M  V30 19 C 1.159498 0.446996 -1.548428 0
M  V30 20 C -0.640201 -1.008652 0.991917 0
M  V30 21 C -1.554434 -1.161763 -0.120356 0
M  V30 22 N -2.283975 -1.298209 -1.003682 0
M  V30 23 H 0.301228 -4.456619 4.240450 0
M  V30 24 H 0.404966 -4.554647 4.291777 0
M  V30 25 H -0.120511 -6.002043 1.988445 0
M  V30 26 H -2.336028 -5.273758 1.275529 0
M  V30 27 H -1.016981 -4.380378 0.466832 0
M  V30 28 H 2.573223 -1.387179 4.080663 0
M  V30 29 H 1.720375 0.317332 4.627776 0
M  V30 30 H -0.885337 2.249911 0.482057 0
M  V30 31 H -0.879225 3.718394 -1.415793 0
M  V30 32 H -0.103620 4.346581 -3.611711 0
M  V30 33 H -0.117348 2.918191 -4.639832 0
M  V30 34 H 1.436841 3.624376 -4.138844 0
M  V30 35 H 1.700342 1.042047 -3.460764 0
M  V30 36 H 1.700214 -0.478469 -1.510006 0
M  V30 END ATOM
M  V30 BEGIN BOND
M  V30 1 2 1 2
M  V30 2 1 2 3
M  V30 3 1 3 4
M  V30 4 1 4 5
M  V30 5 2 5 6
M  V30 6 1 6 7
M  V30 7 1 7 8
M  V30 8 2 7 9
M  V30 9 1 9 10
M  V30 10 3 10 11
M  V30 11 1 9 12
M  V30 12 1 12 13
M  V30 13 2 13 14
M  V30 14 1 14 15
M  V30 15 2 15 16
M  V30 16 1 16 17
M  V30 17 1 16 18
M  V30 18 2 18 19
M  V30 19 2 12 20
M  V30 20 1 20 21
M  V30 21 3 21 22
M  V30 22 1 20 5
M  V30 23 1 19 13
M  V30 24 1 1 23
M  V30 25 1 1 24
M  V30 26 1 2 25
M  V30 27 1 3 26
M  V30 28 1 3 27
M  V30 29 1 8 28
M  V30 30 1 8 29
M  V30 31 1 14 30
M  V30 32 1 15 31
M  V30 33 1 17 32
M  V30 34 1 17 33
M  V30 35 1 17 34
M  V30 36 1 18 35
M  V30 37 1 19 36
M  V30 END BOND
M  V30 END CTAB
M  END
>  <Dataset>  (714) 
ChEMBL_Kinases

>  <Ligand_Instance>  (714) 
nan

>  <PDB_ID>  (714) 
nan

>  <Standardized_SMILES>  (714) 
C=CCSc1nc(N)c(C#N)c(-c2ccc(C)cc2)c1C#N

>  <Name>  (714) 
nan

>  <Pocket>  (714) 
nan

>  <ATP_Site>  (714) 
nan

>  <Peripheral>  (714) 
nan

>  <Num_H_Atoms_ProtBoundConf>  (714) 
nan

>  <Num_Resolved_Atoms>  (714) 
nan

>  <Num_Not_Resolved_Atoms>  (714) 
nan

$$$$
CHEMBL1440513
     RDKit          3D

  0  0  0  0  0  0  0  0  0  0999 V3000
M  V30 BEGIN CTAB
M  V30 COUNTS 43 46 0 0 0
M  V30 BEGIN ATOM
M  V30 1 C 2.048821 -4.062706 -1.232454 0
M  V30 2 O 2.372852 -2.738064 -0.862819 0
M  V30 3 C 3.405773 -2.058368 -1.452620 0
M  V30 4 O 4.149253 -2.534799 -2.359167 0
M  V30 5 C 3.712023 -0.691005 -1.045524 0
M  V30 6 N 4.688399 0.108628 -1.524578 0
M  V30 7 C 4.636154 1.305124 -0.880050 0
M  V30 8 C 5.418014 2.436865 -1.018233 0
M  V30 9 C 5.187686 3.568405 -0.245938 0
M  V30 10 C 4.148119 3.551623 0.680881 0
M  V30 11 C 3.367916 2.428957 0.822101 0
M  V30 12 C 3.610015 1.319954 0.050479 0
M  V30 13 C 3.049359 0.045680 -0.081499 0
M  V30 14 N 1.934586 -0.355608 0.721008 0
M  V30 15 C 0.598833 -0.127985 0.266210 0
M  V30 16 O 0.281112 0.419048 -0.827250 0
M  V30 17 C -0.511803 -0.558445 1.126820 0
M  V30 18 C -1.785244 -0.396779 0.803980 0
M  V30 19 C -2.954073 -0.779475 1.569250 0
M  V30 20 C -4.242286 -0.537569 1.086393 0
M  V30 21 C -5.329037 -0.917721 1.847234 0
M  V30 22 C -5.190289 -1.531232 3.073889 0
M  V30 23 C -3.926820 -1.792910 3.596310 0
M  V30 24 C -2.847489 -1.394857 2.799673 0
M  V30 25 O -4.054398 -2.404674 4.819696 0
M  V30 26 C -5.424691 -2.673958 5.055475 0
M  V30 27 O -6.096226 -2.007399 4.026608 0
M  V30 28 H 2.956832 -4.658572 -1.476899 0
M  V30 29 H 1.598893 -4.534236 -0.317941 0
M  V30 30 H 1.334177 -4.134366 -2.059319 0
M  V30 31 H 5.383108 -0.134022 -2.270702 0
M  V30 32 H 6.230828 2.472099 -1.731817 0
M  V30 33 H 5.754697 4.488610 -0.296513 0
M  V30 34 H 3.934580 4.407580 1.300478 0
M  V30 35 H 2.558110 2.369392 1.520890 0
M  V30 36 H 2.073212 -0.822733 1.654971 0
M  V30 37 H -0.333147 -1.035226 2.079749 0
M  V30 38 H -1.940825 0.088983 -0.166970 0
M  V30 39 H -4.372062 -0.056350 0.124258 0
M  V30 40 H -6.301395 -0.709692 1.432092 0
M  V30 41 H -1.889289 -1.619358 3.247873 0
M  V30 42 H -5.720258 -2.330604 6.067703 0
M  V30 43 H -5.539050 -3.791617 4.965063 0
M  V30 END ATOM
M  V30 BEGIN BOND
M  V30 1 1 1 2
M  V30 2 1 2 3
M  V30 3 2 3 4
M  V30 4 1 3 5
M  V30 5 1 5 6
M  V30 6 1 6 7
M  V30 7 2 7 8
M  V30 8 1 8 9
M  V30 9 2 9 10
M  V30 10 1 10 11
M  V30 11 2 11 12
M  V30 12 1 12 13
M  V30 13 1 13 14
M  V30 14 1 14 15
M  V30 15 2 15 16
M  V30 16 1 15 17
M  V30 17 2 17 18
M  V30 18 1 18 19
M  V30 19 2 19 20
M  V30 20 1 20 21
M  V30 21 2 21 22
M  V30 22 1 22 23
M  V30 23 2 23 24
M  V30 24 1 23 25
M  V30 25 1 25 26
M  V30 26 1 26 27
M  V30 27 2 13 5
M  V30 28 1 24 19
M  V30 29 1 12 7
M  V30 30 1 27 22
M  V30 31 1 1 28
M  V30 32 1 1 29
M  V30 33 1 1 30
M  V30 34 1 6 31
M  V30 35 1 8 32
M  V30 36 1 9 33
M  V30 37 1 10 34
M  V30 38 1 11 35
M  V30 39 1 14 36
M  V30 40 1 17 37
M  V30 41 1 18 38
M  V30 42 1 20 39
M  V30 43 1 21 40
M  V30 44 1 24 41
M  V30 45 1 26 42
M  V30 46 1 26 43
M  V30 END BOND
M  V30 END CTAB
M  END
>  <Dataset>  (715) 
ChEMBL_Kinases

>  <Ligand_Instance>  (715) 
nan

>  <PDB_ID>  (715) 
nan

>  <Standardized_SMILES>  (715) 
COC(=O)c1[nH]c2ccccc2c1NC(=O)/C=C/c1ccc2c(c1)OCO2

>  <Name>  (715) 
nan

>  <Pocket>  (715) 
nan

>  <ATP_Site>  (715) 
nan

>  <Peripheral>  (715) 
nan

>  <Num_H_Atoms_ProtBoundConf>  (715) 
nan

>  <Num_Resolved_Atoms>  (715) 
nan

>  <Num_Not_Resolved_Atoms>  (715) 
nan

$$$$
CHEMBL1440294
     RDKit          3D

  0  0  0  0  0  0  0  0  0  0999 V3000
M  V30 BEGIN CTAB
M  V30 COUNTS 48 50 0 0 0
M  V30 BEGIN ATOM
M  V30 1 O 3.182421 -1.049566 2.482931 0
M  V30 2 C 2.126867 -1.413305 1.898680 0
M  V30 3 N 2.197095 -2.332948 0.841854 0
M  V30 4 C 3.385520 -2.956704 0.298807 0
M  V30 5 C 4.142758 -2.011211 -0.567768 0
M  V30 6 C 3.815102 -1.972942 -1.896175 0
M  V30 7 C 4.409550 -1.160305 -2.855655 0
M  V30 8 C 5.418590 -0.343987 -2.333208 0
M  V30 9 N 5.747738 -0.373721 -1.032189 0
M  V30 10 C 5.157358 -1.167998 -0.128345 0
M  V30 11 C 0.873500 -0.853652 2.355993 0
M  V30 12 O -0.182718 -1.209277 1.779782 0
M  V30 13 N 0.765178 0.068644 3.411007 0
M  V30 14 C -0.368644 0.723946 3.991736 0
M  V30 15 C -1.152106 1.609407 3.074318 0
M  V30 16 O -0.385193 2.639687 2.545078 0
M  V30 17 C -0.259304 2.388326 1.194982 0
M  V30 18 C -1.519298 1.657052 0.813173 0
M  V30 19 N -1.745219 0.871909 2.012476 0
M  V30 20 S -3.371760 0.426475 2.228069 0
M  V30 21 O -4.313628 1.597176 2.242823 0
M  V30 22 O -3.527137 -0.409150 3.450664 0
M  V30 23 C -3.813525 -0.572661 0.834439 0
M  V30 24 C -3.615342 -1.934932 0.912988 0
M  V30 25 C -3.913553 -2.842370 -0.101780 0
M  V30 26 C -4.446401 -2.300962 -1.259096 0
M  V30 27 F -4.757780 -3.130097 -2.282818 0
M  V30 28 C -4.648043 -0.947795 -1.348729 0
M  V30 29 C -4.351590 -0.064610 -0.345790 0
M  V30 30 H 1.268680 -2.578092 0.415407 0
M  V30 31 H 3.100896 -3.823787 -0.295583 0
M  V30 32 H 4.068015 -3.219478 1.137772 0
M  V30 33 H 3.028711 -2.616428 -2.274587 0
M  V30 34 H 4.106296 -1.179561 -3.876148 0
M  V30 35 H 5.922190 0.318720 -3.050144 0
M  V30 36 H 5.416356 -1.196990 0.907596 0
M  V30 37 H 1.713146 0.306125 3.837861 0
M  V30 38 H -1.101869 -0.056171 4.375295 0
M  V30 39 H -0.089842 1.275063 4.919186 0
M  V30 40 H -1.945046 2.107307 3.719714 0
M  V30 41 H 0.617076 1.718348 1.055172 0
M  V30 42 H -0.110952 3.309375 0.594843 0
M  V30 43 H -1.266315 0.958197 -0.019093 0
M  V30 44 H -2.357625 2.321101 0.569338 0
M  V30 45 H -3.195484 -2.351974 1.827688 0
M  V30 46 H -3.726379 -3.894875 0.041342 0
M  V30 47 H -5.066958 -0.504274 -2.252931 0
M  V30 48 H -4.487307 1.005751 -0.356245 0
M  V30 END ATOM
M  V30 BEGIN BOND
M  V30 1 2 1 2
M  V30 2 1 2 3
M  V30 3 1 3 4
M  V30 4 1 4 5
M  V30 5 2 5 6
M  V30 6 1 6 7
M  V30 7 2 7 8
M  V30 8 1 8 9
M  V30 9 2 9 10
M  V30 10 1 2 11
M  V30 11 2 11 12
M  V30 12 1 11 13
M  V30 13 1 13 14
M  V30 14 1 14 15
M  V30 15 1 15 16
M  V30 16 1 16 17
M  V30 17 1 17 18
M  V30 18 1 18 19
M  V30 19 1 19 20
M  V30 20 2 20 21
M  V30 21 2 20 22
M  V30 22 1 20 23
M  V30 23 2 23 24
M  V30 24 1 24 25
M  V30 25 2 25 26
M  V30 26 1 26 27
M  V30 27 1 26 28
M  V30 28 2 28 29
M  V30 29 1 10 5
M  V30 30 1 19 15
M  V30 31 1 29 23
M  V30 32 1 3 30
M  V30 33 1 4 31
M  V30 34 1 4 32
M  V30 35 1 6 33
M  V30 36 1 7 34
M  V30 37 1 8 35
M  V30 38 1 10 36
M  V30 39 1 13 37
M  V30 40 1 14 38
M  V30 41 1 14 39
M  V30 42 1 15 40
M  V30 43 1 17 41
M  V30 44 1 17 42
M  V30 45 1 18 43
M  V30 46 1 18 44
M  V30 47 1 24 45
M  V30 48 1 25 46
M  V30 49 1 28 47
M  V30 50 1 29 48
M  V30 END BOND
M  V30 END CTAB
M  END
>  <Dataset>  (716) 
ChEMBL_Kinases

>  <Ligand_Instance>  (716) 
nan

>  <PDB_ID>  (716) 
nan

>  <Standardized_SMILES>  (716) 
O=C(NCc1cccnc1)C(=O)NCC1OCCN1S(=O)(=O)c1ccc(F)cc1

>  <Name>  (716) 
nan

>  <Pocket>  (716) 
nan

>  <ATP_Site>  (716) 
nan

>  <Peripheral>  (716) 
nan

>  <Num_H_Atoms_ProtBoundConf>  (716) 
nan

>  <Num_Resolved_Atoms>  (716) 
nan

>  <Num_Not_Resolved_Atoms>  (716) 
nan

$$$$
CHEMBL1440240
     RDKit          3D

  0  0  0  0  0  0  0  0  0  0999 V3000
M  V30 BEGIN CTAB
M  V30 COUNTS 57 60 0 0 0
M  V30 BEGIN ATOM
M  V30 1 C 1.216941 -3.383596 3.016942 0
M  V30 2 C 1.883355 -2.081166 3.334807 0
M  V30 3 C 2.150893 -1.749782 4.592866 0
M  V30 4 C 2.808700 -0.478180 4.989362 0
M  V30 5 C 1.894844 0.206684 5.985809 0
M  V30 6 C 4.098357 -0.776904 5.760619 0
M  V30 7 N 3.121724 0.350422 3.857998 0
M  V30 8 C 2.858273 0.046640 2.486157 0
M  V30 9 C 3.197848 0.910666 1.465077 0
M  V30 10 C 2.913587 0.555663 0.145647 0
M  V30 11 C 2.298906 -0.647353 -0.137236 0
M  V30 12 C 1.944702 -1.141727 -1.474150 0
M  V30 13 C 0.585242 -0.749031 -1.924170 0
M  V30 14 C 0.456254 0.451401 -2.624061 0
M  V30 15 C -0.732626 0.961435 -3.111740 0
M  V30 16 C -1.847069 0.194149 -2.865241 0
M  V30 17 C -1.796598 -1.002136 -2.180870 0
M  V30 18 C -0.587147 -1.469335 -1.713940 0
M  V30 19 C -2.991242 -1.797063 -1.932182 0
M  V30 20 C -2.935595 -3.074392 -1.201132 0
M  V30 21 C -4.131775 -1.312751 -2.397190 0
M  V30 22 C -4.370567 -0.053685 -3.148629 0
M  V30 23 C -5.382058 0.803841 -2.428147 0
M  V30 24 C -4.867130 -0.462034 -4.531928 0
M  V30 25 N -3.108301 0.637348 -3.327313 0
M  V30 26 C 1.965033 -1.505020 0.914785 0
M  V30 27 C 2.244880 -1.160260 2.241637 0
M  V30 28 H 1.857026 -3.893439 2.265643 0
M  V30 29 H 1.230466 -4.007003 3.937441 0
M  V30 30 H 0.180402 -3.264956 2.691845 0
M  V30 31 H 1.891255 -2.416614 5.409974 0
M  V30 32 H 0.868062 0.355775 5.609644 0
M  V30 33 H 2.386254 1.153944 6.273238 0
M  V30 34 H 1.930559 -0.432468 6.910114 0
M  V30 35 H 4.485942 0.198464 6.110873 0
M  V30 36 H 3.872817 -1.384625 6.646342 0
M  V30 37 H 4.863807 -1.220744 5.088652 0
M  V30 38 H 3.586954 1.255609 4.103290 0
M  V30 39 H 3.678216 1.851212 1.683810 0
M  V30 40 H 3.156790 1.191806 -0.687962 0
M  V30 41 H 2.096563 -2.253024 -1.568158 0
M  V30 42 H 2.682777 -0.721720 -2.210564 0
M  V30 43 H 1.351245 1.041521 -2.807276 0
M  V30 44 H -0.738309 1.903694 -3.645074 0
M  V30 45 H -0.475126 -2.401003 -1.168747 0
M  V30 46 H -2.214891 -3.805731 -1.601364 0
M  V30 47 H -3.952741 -3.554372 -1.258995 0
M  V30 48 H -2.786469 -2.892038 -0.096920 0
M  V30 49 H -5.044427 -1.898637 -2.219300 0
M  V30 50 H -5.396129 0.628605 -1.332587 0
M  V30 51 H -5.274212 1.884220 -2.682671 0
M  V30 52 H -6.389229 0.524087 -2.801854 0
M  V30 53 H -4.765934 -1.562133 -4.706191 0
M  V30 54 H -5.934752 -0.170629 -4.635947 0
M  V30 55 H -4.297545 0.034004 -5.345364 0
M  V30 56 H -3.159785 1.531189 -3.841046 0
M  V30 57 H 1.483001 -2.462576 0.776471 0
M  V30 END ATOM
M  V30 BEGIN BOND
M  V30 1 1 1 2
M  V30 2 2 2 3
M  V30 3 1 3 4
M  V30 4 1 4 5
M  V30 5 1 4 6
M  V30 6 1 4 7
M  V30 7 1 7 8
M  V30 8 2 8 9
M  V30 9 1 9 10
M  V30 10 2 10 11
M  V30 11 1 11 12
M  V30 12 1 12 13
M  V30 13 2 13 14
M  V30 14 1 14 15
M  V30 15 2 15 16
M  V30 16 1 16 17
M  V30 17 2 17 18
M  V30 18 1 17 19
M  V30 19 1 19 20
M  V30 20 2 19 21
M  V30 21 1 21 22
M  V30 22 1 22 23
M  V30 23 1 22 24
M  V30 24 1 22 25
M  V30 25 1 11 26
M  V30 26 2 26 27
M  V30 27 1 27 2
M  V30 28 1 27 8
M  V30 29 1 18 13
M  V30 30 1 25 16
M  V30 31 1 1 28
M  V30 32 1 1 29
M  V30 33 1 1 30
M  V30 34 1 3 31
M  V30 35 1 5 32
M  V30 36 1 5 33
M  V30 37 1 5 34
M  V30 38 1 6 35
M  V30 39 1 6 36
M  V30 40 1 6 37
M  V30 41 1 7 38
M  V30 42 1 9 39
M  V30 43 1 10 40
M  V30 44 1 12 41
M  V30 45 1 12 42
M  V30 46 1 14 43
M  V30 47 1 15 44
M  V30 48 1 18 45
M  V30 49 1 20 46
M  V30 50 1 20 47
M  V30 51 1 20 48
M  V30 52 1 21 49
M  V30 53 1 23 50
M  V30 54 1 23 51
M  V30 55 1 23 52
M  V30 56 1 24 53
M  V30 57 1 24 54
M  V30 58 1 24 55
M  V30 59 1 25 56
M  V30 60 1 26 57
M  V30 END BOND
M  V30 END CTAB
M  END
>  <Dataset>  (717) 
ChEMBL_Kinases

>  <Ligand_Instance>  (717) 
nan

>  <PDB_ID>  (717) 
nan

>  <Standardized_SMILES>  (717) 
CC1=CC(C)(C)Nc2ccc(Cc3ccc4c(c3)C(C)=CC(C)(C)N4)cc21

>  <Name>  (717) 
nan

>  <Pocket>  (717) 
nan

>  <ATP_Site>  (717) 
nan

>  <Peripheral>  (717) 
nan

>  <Num_H_Atoms_ProtBoundConf>  (717) 
nan

>  <Num_Resolved_Atoms>  (717) 
nan

>  <Num_Not_Resolved_Atoms>  (717) 
nan

$$$$
CHEMBL1438628
     RDKit          3D

  0  0  0  0  0  0  0  0  0  0999 V3000
M  V30 BEGIN CTAB
M  V30 COUNTS 25 26 0 0 0
M  V30 BEGIN ATOM
M  V30 1 O 0.096520 0.334400 3.578002 0
M  V30 2 C 0.199471 0.065700 2.347640 0
M  V30 3 C -0.498489 -1.040023 1.664788 0
M  V30 4 C 0.122226 -1.543766 0.530590 0
M  V30 5 C -0.524810 -2.553931 -0.143916 0
M  V30 6 C -1.730250 -3.083528 0.236554 0
M  V30 7 O -2.411478 -4.110658 -0.432269 0
M  V30 8 C -2.379328 -2.590824 1.384916 0
M  V30 9 C -1.707409 -1.564454 2.056753 0
M  V30 10 C 1.089077 0.949710 1.586951 0
M  V30 11 C 0.927164 1.175430 0.237624 0
M  V30 12 C 1.746773 1.962286 -0.539930 0
M  V30 13 C 2.818593 2.582615 0.059888 0
M  V30 14 Cl 3.872223 3.587604 -0.937032 0
M  V30 15 C 3.032235 2.393117 1.422250 0
M  V30 16 C 2.181400 1.586365 2.188452 0
M  V30 17 H 1.068996 -1.282425 0.076442 0
M  V30 18 H -0.174831 -3.044240 -1.039541 0
M  V30 19 H -2.150549 -4.431191 -1.359196 0
M  V30 20 H -3.337287 -2.937389 1.778318 0
M  V30 21 H -2.101333 -1.087940 2.964580 0
M  V30 22 H 0.091380 0.750497 -0.339549 0
M  V30 23 H 1.593519 2.120514 -1.608365 0
M  V30 24 H 3.898601 2.903325 1.869621 0
M  V30 25 H 2.363033 1.454171 3.246391 0
M  V30 END ATOM
M  V30 BEGIN BOND
M  V30 1 2 1 2
M  V30 2 1 2 3
M  V30 3 2 3 4
M  V30 4 1 4 5
M  V30 5 2 5 6
M  V30 6 1 6 7
M  V30 7 1 6 8
M  V30 8 2 8 9
M  V30 9 1 2 10
M  V30 10 2 10 11
M  V30 11 1 11 12
M  V30 12 2 12 13
M  V30 13 1 13 14
M  V30 14 1 13 15
M  V30 15 2 15 16
M  V30 16 1 9 3
M  V30 17 1 16 10
M  V30 18 1 4 17
M  V30 19 1 5 18
M  V30 20 1 7 19
M  V30 21 1 8 20
M  V30 22 1 9 21
M  V30 23 1 11 22
M  V30 24 1 12 23
M  V30 25 1 15 24
M  V30 26 1 16 25
M  V30 END BOND
M  V30 END CTAB
M  END
>  <Dataset>  (718) 
ChEMBL_Kinases

>  <Ligand_Instance>  (718) 
nan

>  <PDB_ID>  (718) 
nan

>  <Standardized_SMILES>  (718) 
O=C(c1ccc(O)cc1)c1ccc(Cl)cc1

>  <Name>  (718) 
nan

>  <Pocket>  (718) 
nan

>  <ATP_Site>  (718) 
nan

>  <Peripheral>  (718) 
nan

>  <Num_H_Atoms_ProtBoundConf>  (718) 
nan

>  <Num_Resolved_Atoms>  (718) 
nan

>  <Num_Not_Resolved_Atoms>  (718) 
nan

$$$$
CHEMBL1438646
     RDKit          3D

  0  0  0  0  0  0  0  0  0  0999 V3000
M  V30 BEGIN CTAB
M  V30 COUNTS 57 60 0 0 0
M  V30 BEGIN ATOM
M  V30 1 C 1.002723 -4.369903 3.677208 0
M  V30 2 C 2.197045 -3.979027 2.812462 0
M  V30 3 C 2.230706 -2.466604 2.768184 0
M  V30 4 C 3.330754 -1.922828 1.968532 0
M  V30 5 N 4.458239 -1.367585 2.501878 0
M  V30 6 N 5.254418 -0.975036 1.525022 0
M  V30 7 C 4.643328 -1.275692 0.382901 0
M  V30 8 C 3.419486 -1.878252 0.592409 0
M  V30 9 C 2.594600 -2.284608 -0.554470 0
M  V30 10 C 1.319224 -1.524739 -0.634449 0
M  V30 11 C 1.348851 -0.240605 -1.195043 0
M  V30 12 C 0.168471 0.506500 -1.296497 0
M  V30 13 C -1.015495 -0.034239 -0.840812 0
M  V30 14 O -2.202158 0.723105 -0.945089 0
M  V30 15 C -2.639382 1.540076 0.063749 0
M  V30 16 O -1.916232 1.577187 1.100313 0
M  V30 17 N -3.834793 2.319009 -0.012253 0
M  V30 18 C -4.851603 2.481127 -1.064495 0
M  V30 19 C -6.194447 2.581850 -0.360443 0
M  V30 20 O -6.232086 1.867336 0.835140 0
M  V30 21 C -5.372088 2.391685 1.789596 0
M  V30 22 C -4.213340 3.145238 1.121836 0
M  V30 23 C -1.088969 -1.294999 -0.282129 0
M  V30 24 O -2.295412 -1.802826 0.163654 0
M  V30 25 C -2.441317 -3.066963 0.737567 0
M  V30 26 C 0.096454 -1.994545 -0.201986 0
M  V30 27 C 3.337049 -1.920565 -1.809704 0
M  V30 28 C 2.626022 -2.272228 -3.016896 0
M  V30 29 N 2.033422 -2.559477 -3.993557 0
M  V30 30 C 4.520934 -1.337589 -2.031378 0
M  V30 31 N 5.024125 -1.091132 -3.338000 0
M  V30 32 O 5.189912 -1.007122 -0.858140 0
M  V30 33 H 0.042561 -4.306647 3.143072 0
M  V30 34 H 0.974519 -3.596042 4.498210 0
M  V30 35 H 1.170166 -5.334254 4.201912 0
M  V30 36 H 3.089586 -4.381736 3.332121 0
M  V30 37 H 2.151854 -4.444964 1.824506 0
M  V30 38 H 1.278839 -2.036785 2.411552 0
M  V30 39 H 2.321229 -2.134486 3.837205 0
M  V30 40 H 6.168792 -0.524999 1.754847 0
M  V30 41 H 2.357321 -3.371530 -0.545085 0
M  V30 42 H 2.308695 0.131081 -1.535118 0
M  V30 43 H 0.196479 1.490228 -1.727134 0
M  V30 44 H -4.700548 3.444212 -1.597892 0
M  V30 45 H -4.854555 1.609012 -1.741253 0
M  V30 46 H -6.940801 2.115828 -1.041037 0
M  V30 47 H -6.464733 3.645897 -0.213847 0
M  V30 48 H -4.927284 1.509062 2.317984 0
M  V30 49 H -5.840657 3.049543 2.528397 0
M  V30 50 H -4.517981 4.163402 0.822865 0
M  V30 51 H -3.405991 3.139715 1.871677 0
M  V30 52 H -3.501320 -3.366762 0.656376 0
M  V30 53 H -2.166963 -3.095769 1.811972 0
M  V30 54 H -1.817109 -3.796414 0.162449 0
M  V30 55 H 0.116955 -2.987714 0.223539 0
M  V30 56 H 5.196667 -0.193513 -3.807977 0
M  V30 57 H 5.327852 -1.706663 -4.103361 0
M  V30 END ATOM
M  V30 BEGIN BOND
M  V30 1 1 1 2
M  V30 2 1 2 3
M  V30 3 1 3 4
M  V30 4 2 4 5
M  V30 5 1 5 6
M  V30 6 1 6 7
M  V30 7 2 7 8
M  V30 8 1 8 9
M  V30 9 1 9 10
M  V30 10 2 10 11
M  V30 11 1 11 12
M  V30 12 2 12 13
M  V30 13 1 13 14
M  V30 14 1 14 15
M  V30 15 2 15 16
M  V30 16 1 15 17
M  V30 17 1 17 18
M  V30 18 1 18 19
M  V30 19 1 19 20
M  V30 20 1 20 21
M  V30 21 1 21 22
M  V30 22 1 13 23
M  V30 23 1 23 24
M  V30 24 1 24 25
M  V30 25 2 23 26
M  V30 26 1 9 27
M  V30 27 1 27 28
M  V30 28 3 28 29
M  V30 29 2 27 30
M  V30 30 1 30 31
M  V30 31 1 30 32
M  V30 32 1 8 4
M  V30 33 1 26 10
M  V30 34 1 32 7
M  V30 35 1 22 17
M  V30 36 1 1 33
M  V30 37 1 1 34
M  V30 38 1 1 35
M  V30 39 1 2 36
M  V30 40 1 2 37
M  V30 41 1 3 38
M  V30 42 1 3 39
M  V30 43 1 6 40
M  V30 44 1 9 41
M  V30 45 1 11 42
M  V30 46 1 12 43
M  V30 47 1 18 44
M  V30 48 1 18 45
M  V30 49 1 19 46
M  V30 50 1 19 47
M  V30 51 1 21 48
M  V30 52 1 21 49
M  V30 53 1 22 50
M  V30 54 1 22 51
M  V30 55 1 25 52
M  V30 56 1 25 53
M  V30 57 1 25 54
M  V30 58 1 26 55
M  V30 59 1 31 56
M  V30 60 1 31 57
M  V30 END BOND
M  V30 END CTAB
M  END
>  <Dataset>  (719) 
ChEMBL_Kinases

>  <Ligand_Instance>  (719) 
nan

>  <PDB_ID>  (719) 
nan

>  <Standardized_SMILES>  (719) 
CCCc1n[nH]c2c1C(c1ccc(OC(=O)N3CCOCC3)c(OC)c1)C(C#N)=C(N)O2

>  <Name>  (719) 
nan

>  <Pocket>  (719) 
nan

>  <ATP_Site>  (719) 
nan

>  <Peripheral>  (719) 
nan

>  <Num_H_Atoms_ProtBoundConf>  (719) 
nan

>  <Num_Resolved_Atoms>  (719) 
nan

>  <Num_Not_Resolved_Atoms>  (719) 
nan

$$$$
CHEMBL1438667
     RDKit          3D

  0  0  0  0  0  0  0  0  0  0999 V3000
M  V30 BEGIN CTAB
M  V30 COUNTS 42 44 0 0 0
M  V30 BEGIN ATOM
M  V30 1 C 3.031459 -6.170017 -0.224495 0
M  V30 2 O 2.923132 -4.813251 -0.680836 0
M  V30 3 C 1.726837 -4.121383 -0.595106 0
M  V30 4 C 0.488829 -4.539155 -0.101524 0
M  V30 5 C -0.626581 -3.710237 -0.086740 0
M  V30 6 C -0.449414 -2.411669 -0.599771 0
M  V30 7 O -1.587212 -1.623622 -0.564452 0
M  V30 8 C -2.838251 -2.028569 -0.068002 0
M  V30 9 C 0.749142 -1.958129 -1.095445 0
M  V30 10 N 0.777661 -0.615721 -1.558936 0
M  V30 11 C 0.387095 0.415548 -0.624035 0
M  V30 12 C 0.972549 0.875001 0.521078 0
M  V30 13 C 0.343053 1.900425 1.192006 0
M  V30 14 C 0.984457 2.360226 2.415975 0
M  V30 15 C 2.157501 1.877379 2.952659 0
M  V30 16 C 2.689340 2.364726 4.127909 0
M  V30 17 C 1.993884 3.362140 4.747012 0
M  V30 18 C 0.799544 3.917789 4.284431 0
M  V30 19 C 0.341013 3.368333 3.101435 0
M  V30 20 N -0.806950 2.412378 0.712639 0
M  V30 21 C -1.384980 1.961611 -0.414273 0
M  V30 22 N -2.601356 2.587289 -0.820951 0
M  V30 23 N -0.781474 0.955853 -1.085059 0
M  V30 24 C 1.809820 -2.836261 -1.077237 0
M  V30 25 H 3.186372 -6.212827 0.865853 0
M  V30 26 H 3.898307 -6.675283 -0.693903 0
M  V30 27 H 2.084405 -6.730463 -0.472171 0
M  V30 28 H 0.509084 -5.565133 0.258865 0
M  V30 29 H -1.517177 -4.137830 0.315744 0
M  V30 30 H -3.223107 -2.825900 -0.747981 0
M  V30 31 H -3.530644 -1.204797 0.106888 0
M  V30 32 H -2.657213 -2.491195 0.937436 0
M  V30 33 H 1.050692 -0.281142 -2.508262 0
M  V30 34 H 1.872924 0.348391 0.739940 0
M  V30 35 H 2.668650 1.091190 2.425470 0
M  V30 36 H 3.611468 1.960242 4.519233 0
M  V30 37 H 2.371485 3.785437 5.684193 0
M  V30 38 H 0.283455 4.704288 4.807683 0
M  V30 39 H -0.589532 3.795471 2.728961 0
M  V30 40 H -2.715043 3.619485 -0.662729 0
M  V30 41 H -3.249977 1.886835 -1.246369 0
M  V30 42 H 2.711648 -2.390000 -1.485419 0
M  V30 END ATOM
M  V30 BEGIN BOND
M  V30 1 1 1 2
M  V30 2 1 2 3
M  V30 3 2 3 4
M  V30 4 1 4 5
M  V30 5 2 5 6
M  V30 6 1 6 7
M  V30 7 1 7 8
M  V30 8 1 6 9
M  V30 9 1 9 10
M  V30 10 1 10 11
M  V30 11 2 11 12
M  V30 12 1 12 13
M  V30 13 1 13 14
M  V30 14 2 14 15
M  V30 15 1 15 16
M  V30 16 2 16 17
M  V30 17 1 17 18
M  V30 18 2 18 19
M  V30 19 2 13 20
M  V30 20 1 20 21
M  V30 21 1 21 22
M  V30 22 2 21 23
M  V30 23 2 9 24
M  V30 24 1 24 3
M  V30 25 1 23 11
M  V30 26 1 19 14
M  V30 27 1 1 25
M  V30 28 1 1 26
M  V30 29 1 1 27
M  V30 30 1 4 28
M  V30 31 1 5 29
M  V30 32 1 8 30
M  V30 33 1 8 31
M  V30 34 1 8 32
M  V30 35 1 10 33
M  V30 36 1 12 34
M  V30 37 1 15 35
M  V30 38 1 16 36
M  V30 39 1 17 37
M  V30 40 1 18 38
M  V30 41 1 19 39
M  V30 42 1 22 40
M  V30 43 1 22 41
M  V30 44 1 24 42
M  V30 END BOND
M  V30 END CTAB
M  END
>  <Dataset>  (720) 
ChEMBL_Kinases

>  <Ligand_Instance>  (720) 
nan

>  <PDB_ID>  (720) 
nan

>  <Standardized_SMILES>  (720) 
COc1ccc(OC)c(Nc2cc(-c3ccccc3)nc(N)n2)c1

>  <Name>  (720) 
nan

>  <Pocket>  (720) 
nan

>  <ATP_Site>  (720) 
nan

>  <Peripheral>  (720) 
nan

>  <Num_H_Atoms_ProtBoundConf>  (720) 
nan

>  <Num_Resolved_Atoms>  (720) 
nan

>  <Num_Not_Resolved_Atoms>  (720) 
nan

$$$$
CHEMBL1438688
     RDKit          3D

  0  0  0  0  0  0  0  0  0  0999 V3000
M  V30 BEGIN CTAB
M  V30 COUNTS 51 54 0 0 0
M  V30 BEGIN ATOM
M  V30 1 C -3.284331 -6.219452 -2.452226 0
M  V30 2 O -2.074509 -5.852171 -1.841627 0
M  V30 3 C -1.467926 -4.609226 -1.948805 0
M  V30 4 C -1.914855 -3.513341 -2.655722 0
M  V30 5 C -1.210830 -2.328190 -2.679255 0
M  V30 6 C -0.015089 -2.260831 -1.959328 0
M  V30 7 C 0.790707 -1.020796 -1.934801 0
M  V30 8 N 0.644932 -0.278636 -0.681749 0
M  V30 9 C 1.377965 0.917816 -0.519914 0
M  V30 10 N 2.182857 1.360671 -1.469987 0
M  V30 11 C 2.904657 2.487647 -1.368600 0
M  V30 12 N 2.822787 3.228738 -0.244780 0
M  V30 13 C 2.039952 2.878591 0.784346 0
M  V30 14 C 1.953879 3.639474 1.937826 0
M  V30 15 C 1.130647 3.243074 2.978724 0
M  V30 16 C 0.402662 2.064730 2.821496 0
M  V30 17 C -0.425175 1.753275 3.981178 0
M  V30 18 C -0.185036 1.012777 5.142075 0
M  V30 19 C 1.147866 0.378000 5.318590 0
M  V30 20 N -1.336518 1.072437 5.871478 0
M  V30 21 O -2.203280 1.784999 5.216615 0
M  V30 22 C -1.723521 2.220465 4.082434 0
M  V30 23 C -2.529664 3.058500 3.157313 0
M  V30 24 C 0.505366 1.325754 1.665378 0
M  V30 25 C 1.317034 1.698773 0.615660 0
M  V30 26 C 0.449926 -3.366653 -1.237528 0
M  V30 27 O 1.655098 -3.224415 -0.541575 0
M  V30 28 C 2.113322 -4.349329 0.182370 0
M  V30 29 C -0.271876 -4.561967 -1.221061 0
M  V30 30 H -3.892096 -5.308684 -2.597078 0
M  V30 31 H -3.025027 -6.694957 -3.417087 0
M  V30 32 H -3.858238 -6.930357 -1.803080 0
M  V30 33 H -2.851196 -3.656950 -3.183888 0
M  V30 34 H -1.582060 -1.482306 -3.240670 0
M  V30 35 H 0.639823 -0.361892 -2.802034 0
M  V30 36 H 1.879036 -1.320411 -1.928359 0
M  V30 37 H -0.009619 -0.721545 -0.006015 0
M  V30 38 H 3.559937 2.836401 -2.156744 0
M  V30 39 H 2.559398 4.528103 1.949274 0
M  V30 40 H 1.117350 3.882600 3.836552 0
M  V30 41 H 1.931743 1.154951 5.461496 0
M  V30 42 H 1.409601 -0.280000 4.475310 0
M  V30 43 H 1.075394 -0.283549 6.218991 0
M  V30 44 H -1.899323 3.608293 2.441731 0
M  V30 45 H -3.131783 3.822955 3.711105 0
M  V30 46 H -3.245848 2.369803 2.638279 0
M  V30 47 H -0.088954 0.433836 1.627877 0
M  V30 48 H 3.056179 -4.079237 0.705351 0
M  V30 49 H 1.353860 -4.600788 0.955176 0
M  V30 50 H 2.305391 -5.214157 -0.515873 0
M  V30 51 H 0.147089 -5.369530 -0.644178 0
M  V30 END ATOM
M  V30 BEGIN BOND
M  V30 1 1 1 2
M  V30 2 1 2 3
M  V30 3 2 3 4
M  V30 4 1 4 5
M  V30 5 2 5 6
M  V30 6 1 6 7
M  V30 7 1 7 8
M  V30 8 1 8 9
M  V30 9 2 9 10
M  V30 10 1 10 11
M  V30 11 2 11 12
M  V30 12 1 12 13
M  V30 13 2 13 14
M  V30 14 1 14 15
M  V30 15 2 15 16
M  V30 16 1 16 17
M  V30 17 1 17 18
M  V30 18 1 18 19
M  V30 19 2 18 20
M  V30 20 1 20 21
M  V30 21 1 21 22
M  V30 22 1 22 23
M  V30 23 1 16 24
M  V30 24 2 24 25
M  V30 25 1 6 26
M  V30 26 1 26 27
M  V30 27 1 27 28
M  V30 28 2 26 29
M  V30 29 1 29 3
M  V30 30 1 25 9
M  V30 31 1 25 13
M  V30 32 2 22 17
M  V30 33 1 1 30
M  V30 34 1 1 31
M  V30 35 1 1 32
M  V30 36 1 4 33
M  V30 37 1 5 34
M  V30 38 1 7 35
M  V30 39 1 7 36
M  V30 40 1 8 37
M  V30 41 1 11 38
M  V30 42 1 14 39
M  V30 43 1 15 40
M  V30 44 1 19 41
M  V30 45 1 19 42
M  V30 46 1 19 43
M  V30 47 1 23 44
M  V30 48 1 23 45
M  V30 49 1 23 46
M  V30 50 1 24 47
M  V30 51 1 28 48
M  V30 52 1 28 49
M  V30 53 1 28 50
M  V30 54 1 29 51
M  V30 END BOND
M  V30 END CTAB
M  END
>  <Dataset>  (721) 
ChEMBL_Kinases

>  <Ligand_Instance>  (721) 
nan

>  <PDB_ID>  (721) 
nan

>  <Standardized_SMILES>  (721) 
COc1ccc(CNc2ncnc3ccc(-c4c(C)noc4C)cc23)c(OC)c1

>  <Name>  (721) 
nan

>  <Pocket>  (721) 
nan

>  <ATP_Site>  (721) 
nan

>  <Peripheral>  (721) 
nan

>  <Num_H_Atoms_ProtBoundConf>  (721) 
nan

>  <Num_Resolved_Atoms>  (721) 
nan

>  <Num_Not_Resolved_Atoms>  (721) 
nan

$$$$
CHEMBL1438735
     RDKit          3D

  0  0  0  0  0  0  0  0  0  0999 V3000
M  V30 BEGIN CTAB
M  V30 COUNTS 39 40 0 0 0
M  V30 BEGIN ATOM
M  V30 1 C 0.612972 -5.942768 4.126642 0
M  V30 2 C 1.161745 -4.861695 3.204056 0
M  V30 3 O 0.195865 -3.949165 2.781725 0
M  V30 4 C 0.420855 -2.880462 1.948576 0
M  V30 5 C 1.713159 -2.705131 1.498622 0
M  V30 6 C 1.980984 -1.626349 0.647457 0
M  V30 7 C 0.949749 -0.781145 0.290204 0
M  V30 8 C 1.279635 0.330082 -0.599834 0
M  V30 9 O 2.474563 0.440224 -0.977201 0
M  V30 10 N 0.333600 1.284036 -1.058076 0
M  V30 11 C 0.658039 2.367053 -1.926188 0
M  V30 12 C 1.058333 3.611727 -1.449004 0
M  V30 13 C 1.285110 4.399147 -2.568684 0
M  V30 14 C 1.732270 5.813875 -2.445728 0
M  V30 15 O 1.030942 3.653952 -3.634474 0
M  V30 16 N 0.662437 2.461021 -3.277857 0
M  V30 17 C -0.330055 -0.994983 0.765004 0
M  V30 18 C -0.624733 -2.049228 1.605137 0
M  V30 19 O -1.868081 -2.334080 2.122712 0
M  V30 20 C -3.047551 -1.620089 1.899660 0
M  V30 21 C -2.843918 -0.203061 2.393618 0
M  V30 22 H 1.188662 -6.891651 3.989503 0
M  V30 23 H -0.448542 -6.183259 3.857436 0
M  V30 24 H 0.704751 -5.644895 5.188778 0
M  V30 25 H 1.940319 -4.298753 3.773724 0
M  V30 26 H 1.677280 -5.332594 2.334634 0
M  V30 27 H 2.509191 -3.378687 1.789655 0
M  V30 28 H 3.006931 -1.519018 0.313304 0
M  V30 29 H -0.656102 1.207500 -0.756184 0
M  V30 30 H 1.170055 3.904285 -0.392219 0
M  V30 31 H 2.713213 5.909403 -1.943928 0
M  V30 32 H 1.750063 6.344778 -3.408846 0
M  V30 33 H 1.003654 6.332480 -1.760088 0
M  V30 34 H -1.136438 -0.333086 0.483670 0
M  V30 35 H -3.863337 -2.073140 2.511722 0
M  V30 36 H -3.356248 -1.604826 0.834184 0
M  V30 37 H -1.813836 -0.032441 2.762153 0
M  V30 38 H -3.542973 0.031620 3.244766 0
M  V30 39 H -3.095600 0.508519 1.577483 0
M  V30 END ATOM
M  V30 BEGIN BOND
M  V30 1 1 1 2
M  V30 2 1 2 3
M  V30 3 1 3 4
M  V30 4 2 4 5
M  V30 5 1 5 6
M  V30 6 2 6 7
M  V30 7 1 7 8
M  V30 8 2 8 9
M  V30 9 1 8 10
M  V30 10 1 10 11
M  V30 11 1 11 12
M  V30 12 2 12 13
M  V30 13 1 13 14
M  V30 14 1 13 15
M  V30 15 1 15 16
M  V30 16 1 7 17
M  V30 17 2 17 18
M  V30 18 1 18 19
M  V30 19 1 19 20
M  V30 20 1 20 21
M  V30 21 1 18 4
M  V30 22 2 16 11
M  V30 23 1 1 22
M  V30 24 1 1 23
M  V30 25 1 1 24
M  V30 26 1 2 25
M  V30 27 1 2 26
M  V30 28 1 5 27
M  V30 29 1 6 28
M  V30 30 1 10 29
M  V30 31 1 12 30
M  V30 32 1 14 31
M  V30 33 1 14 32
M  V30 34 1 14 33
M  V30 35 1 17 34
M  V30 36 1 20 35
M  V30 37 1 20 36
M  V30 38 1 21 37
M  V30 39 1 21 38
M  V30 40 1 21 39
M  V30 END BOND
M  V30 END CTAB
M  END
>  <Dataset>  (722) 
ChEMBL_Kinases

>  <Ligand_Instance>  (722) 
nan

>  <PDB_ID>  (722) 
nan

>  <Standardized_SMILES>  (722) 
CCOc1ccc(C(=O)Nc2cc(C)on2)cc1OCC

>  <Name>  (722) 
nan

>  <Pocket>  (722) 
nan

>  <ATP_Site>  (722) 
nan

>  <Peripheral>  (722) 
nan

>  <Num_H_Atoms_ProtBoundConf>  (722) 
nan

>  <Num_Resolved_Atoms>  (722) 
nan

>  <Num_Not_Resolved_Atoms>  (722) 
nan

$$$$
CHEMBL1438791
     RDKit          3D

  0  0  0  0  0  0  0  0  0  0999 V3000
M  V30 BEGIN CTAB
M  V30 COUNTS 57 60 0 0 0
M  V30 BEGIN ATOM
M  V30 1 C -1.872219 -1.956113 5.446703 0
M  V30 2 C -0.448713 -1.699636 5.072971 0
M  V30 3 C 0.148545 -0.678361 5.795299 0
M  V30 4 C 1.479580 -0.403702 5.477938 0
M  V30 5 N 2.173497 -1.071621 4.532542 0
M  V30 6 C 1.529866 -2.059625 3.864404 0
M  V30 7 S 2.188797 -3.100553 2.585789 0
M  V30 8 C 1.921299 -2.358172 0.946776 0
M  V30 9 C 0.442414 -2.287869 0.668414 0
M  V30 10 N 0.063058 -1.756072 -0.592482 0
M  V30 11 C -0.184388 -0.498316 -0.990857 0
M  V30 12 N -0.042085 0.668418 -0.192671 0
M  V30 13 C 1.032908 1.556505 -0.593919 0
M  V30 14 C 0.961447 2.865769 0.124122 0
M  V30 15 C -0.377960 3.507261 0.194153 0
M  V30 16 C -0.452697 4.530131 1.339495 0
M  V30 17 C -1.433007 2.477773 0.460858 0
M  V30 18 C -0.722464 1.213516 0.964833 0
M  V30 19 N -0.567442 -0.500648 -2.281204 0
M  V30 20 C -0.560722 -1.788568 -2.706358 0
M  V30 21 C -0.159818 -2.577538 -1.634158 0
M  V30 22 C -0.094493 -3.926180 -1.888512 0
M  V30 23 O 0.268858 -4.656653 -0.930594 0
M  V30 24 N -0.386383 -4.514304 -3.073414 0
M  V30 25 C -0.290846 -5.957553 -3.270188 0
M  V30 26 C -0.766726 -3.667780 -4.047993 0
M  V30 27 O -1.031695 -4.263332 -5.143320 0
M  V30 28 N -0.858417 -2.329652 -3.887848 0
M  V30 29 C -1.291669 -1.516281 -5.022647 0
M  V30 30 N 0.236951 -2.380274 4.120271 0
M  V30 31 H -2.074255 -3.023681 5.225324 0
M  V30 32 H -2.585216 -1.374146 4.863615 0
M  V30 33 H -2.039739 -1.754485 6.517701 0
M  V30 34 H -0.346979 -0.099906 6.566676 0
M  V30 35 H 1.960091 0.385500 6.029663 0
M  V30 36 H 2.322149 -1.307558 0.954896 0
M  V30 37 H 2.516993 -2.899284 0.219779 0
M  V30 38 H 0.051269 -1.558119 1.441122 0
M  V30 39 H -0.079389 -3.235243 0.928833 0
M  V30 40 H 1.047205 1.695621 -1.706717 0
M  V30 41 H 2.012655 1.088424 -0.328739 0
M  V30 42 H 1.636559 3.589023 -0.412750 0
M  V30 43 H 1.432615 2.739496 1.121231 0
M  V30 44 H -0.616330 4.131749 -0.717615 0
M  V30 45 H 0.196888 4.258557 2.179431 0
M  V30 46 H -1.519678 4.525378 1.705276 0
M  V30 47 H -0.190106 5.553739 0.994293 0
M  V30 48 H -2.188441 2.803612 1.231712 0
M  V30 49 H -1.935480 2.258483 -0.506809 0
M  V30 50 H -1.496089 0.472148 1.255893 0
M  V30 51 H -0.027239 1.455708 1.775076 0
M  V30 52 H 0.670516 -6.165773 -3.831558 0
M  V30 53 H -0.258374 -6.489389 -2.299198 0
M  V30 54 H -1.153174 -6.382878 -3.814826 0
M  V30 55 H -0.856160 -0.522939 -5.015429 0
M  V30 56 H -2.397104 -1.491499 -5.090753 0
M  V30 57 H -0.926654 -2.036860 -5.933441 0
M  V30 END ATOM
M  V30 BEGIN BOND
M  V30 1 1 1 2
M  V30 2 2 2 3
M  V30 3 1 3 4
M  V30 4 2 4 5
M  V30 5 1 5 6
M  V30 6 1 6 7
M  V30 7 1 7 8
M  V30 8 1 8 9
M  V30 9 1 9 10
M  V30 10 1 10 11
M  V30 11 1 11 12
M  V30 12 1 12 13
M  V30 13 1 13 14
M  V30 14 1 14 15
M  V30 15 1 15 16
M  V30 16 1 15 17
M  V30 17 1 17 18
M  V30 18 2 11 19
M  V30 19 1 19 20
M  V30 20 2 20 21
M  V30 21 1 21 22
M  V30 22 2 22 23
M  V30 23 1 22 24
M  V30 24 1 24 25
M  V30 25 1 24 26
M  V30 26 2 26 27
M  V30 27 1 26 28
M  V30 28 1 28 29
M  V30 29 2 6 30
M  V30 30 1 30 2
M  V30 31 1 21 10
M  V30 32 1 18 12
M  V30 33 1 28 20
M  V30 34 1 1 31
M  V30 35 1 1 32
M  V30 36 1 1 33
M  V30 37 1 3 34
M  V30 38 1 4 35
M  V30 39 1 8 36
M  V30 40 1 8 37
M  V30 41 1 9 38
M  V30 42 1 9 39
M  V30 43 1 13 40
M  V30 44 1 13 41
M  V30 45 1 14 42
M  V30 46 1 14 43
M  V30 47 1 15 44
M  V30 48 1 16 45
M  V30 49 1 16 46
M  V30 50 1 16 47
M  V30 51 1 17 48
M  V30 52 1 17 49
M  V30 53 1 18 50
M  V30 54 1 18 51
M  V30 55 1 25 52
M  V30 56 1 25 53
M  V30 57 1 25 54
M  V30 58 1 29 55
M  V30 59 1 29 56
M  V30 60 1 29 57
M  V30 END BOND
M  V30 END CTAB
M  END
>  <Dataset>  (723) 
ChEMBL_Kinases

>  <Ligand_Instance>  (723) 
nan

>  <PDB_ID>  (723) 
nan

>  <Standardized_SMILES>  (723) 
Cc1ccnc(SCCn2c(N3CCC(C)CC3)nc3c2c(=O)n(C)c(=O)n3C)n1

>  <Name>  (723) 
nan

>  <Pocket>  (723) 
nan

>  <ATP_Site>  (723) 
nan

>  <Peripheral>  (723) 
nan

>  <Num_H_Atoms_ProtBoundConf>  (723) 
nan

>  <Num_Resolved_Atoms>  (723) 
nan

>  <Num_Not_Resolved_Atoms>  (723) 
nan

$$$$
CHEMBL1439106
     RDKit          3D

  0  0  0  0  0  0  0  0  0  0999 V3000
M  V30 BEGIN CTAB
M  V30 COUNTS 45 47 0 0 0
M  V30 BEGIN ATOM
M  V30 1 C -2.077532 -7.219155 -0.127353 0
M  V30 2 O -1.133093 -6.528705 0.669464 0
M  V30 3 C -0.738969 -5.266910 0.247067 0
M  V30 4 C 0.174407 -4.576049 0.999812 0
M  V30 5 C 0.599382 -3.337628 0.638956 0
M  V30 6 C 0.155200 -2.685182 -0.493484 0
M  V30 7 N 0.603987 -1.384058 -0.869381 0
M  V30 8 C 0.203991 -0.620082 -2.032539 0
M  V30 9 C -0.223381 0.781675 -1.680754 0
M  V30 10 N 0.497927 1.265009 -0.508605 0
M  V30 11 C -0.206446 2.235810 0.274533 0
M  V30 12 O -1.277292 2.337464 -0.371323 0
M  V30 13 C 0.306227 2.860669 1.483785 0
M  V30 14 C 1.049932 4.036207 1.594418 0
M  V30 15 C 1.443685 4.462707 2.848997 0
M  V30 16 C 1.135975 3.778958 4.008328 0
M  V30 17 C 1.576733 4.268433 5.338481 0
M  V30 18 C 0.390835 2.604001 3.880117 0
M  V30 19 C -0.009047 2.165914 2.636166 0
M  V30 20 Cl -0.932539 0.675770 2.685072 0
M  V30 21 C 1.827502 0.657108 -0.350534 0
M  V30 22 C 1.580706 -0.767450 0.037086 0
M  V30 23 C -0.761877 -3.400626 -1.232370 0
M  V30 24 C -1.218100 -4.660089 -0.899350 0
M  V30 25 H -2.467481 -8.037065 0.521262 0
M  V30 26 H -1.551580 -7.609273 -1.009472 0
M  V30 27 H -2.954593 -6.581423 -0.383519 0
M  V30 28 H 0.557401 -5.039797 1.899604 0
M  V30 29 H 1.327857 -2.851356 1.289152 0
M  V30 30 H -0.529567 -1.170948 -2.615219 0
M  V30 31 H 1.117376 -0.531191 -2.669482 0
M  V30 32 H -1.298769 0.771126 -1.494870 0
M  V30 33 H 0.024314 1.456913 -2.525131 0
M  V30 34 H 1.249735 4.509245 0.664093 0
M  V30 35 H 2.016020 5.373206 2.898336 0
M  V30 36 H 0.730803 4.884673 5.741690 0
M  V30 37 H 1.757504 3.428285 6.036165 0
M  V30 38 H 2.509653 4.835073 5.253423 0
M  V30 39 H 0.175809 2.104337 4.822772 0
M  V30 40 H 2.425340 1.177274 0.393924 0
M  V30 41 H 2.305819 0.662256 -1.352750 0
M  V30 42 H 2.494119 -1.376492 0.054763 0
M  V30 43 H 1.093439 -0.842437 1.039494 0
M  V30 44 H -1.183984 -3.014794 -2.126936 0
M  V30 45 H -1.938598 -5.204409 -1.493742 0
M  V30 END ATOM
M  V30 BEGIN BOND
M  V30 1 1 1 2
M  V30 2 1 2 3
M  V30 3 2 3 4
M  V30 4 1 4 5
M  V30 5 2 5 6
M  V30 6 1 6 7
M  V30 7 1 7 8
M  V30 8 1 8 9
M  V30 9 1 9 10
M  V30 10 1 10 11
M  V30 11 2 11 12
M  V30 12 1 11 13
M  V30 13 2 13 14
M  V30 14 1 14 15
M  V30 15 2 15 16
M  V30 16 1 16 17
M  V30 17 1 16 18
M  V30 18 2 18 19
M  V30 19 1 19 20
M  V30 20 1 10 21
M  V30 21 1 21 22
M  V30 22 1 6 23
M  V30 23 2 23 24
M  V30 24 1 24 3
M  V30 25 1 22 7
M  V30 26 1 19 13
M  V30 27 1 1 25
M  V30 28 1 1 26
M  V30 29 1 1 27
M  V30 30 1 4 28
M  V30 31 1 5 29
M  V30 32 1 8 30
M  V30 33 1 8 31
M  V30 34 1 9 32
M  V30 35 1 9 33
M  V30 36 1 14 34
M  V30 37 1 15 35
M  V30 38 1 17 36
M  V30 39 1 17 37
M  V30 40 1 17 38
M  V30 41 1 18 39
M  V30 42 1 21 40
M  V30 43 1 21 41
M  V30 44 1 22 42
M  V30 45 1 22 43
M  V30 46 1 23 44
M  V30 47 1 24 45
M  V30 END BOND
M  V30 END CTAB
M  END
>  <Dataset>  (724) 
ChEMBL_Kinases

>  <Ligand_Instance>  (724) 
nan

>  <PDB_ID>  (724) 
nan

>  <Standardized_SMILES>  (724) 
COc1ccc(N2CCN(C(=O)c3ccc(C)cc3Cl)CC2)cc1

>  <Name>  (724) 
nan

>  <Pocket>  (724) 
nan

>  <ATP_Site>  (724) 
nan

>  <Peripheral>  (724) 
nan

>  <Num_H_Atoms_ProtBoundConf>  (724) 
nan

>  <Num_Resolved_Atoms>  (724) 
nan

>  <Num_Not_Resolved_Atoms>  (724) 
nan

$$$$
CHEMBL1439113
     RDKit          3D

  0  0  0  0  0  0  0  0  0  0999 V3000
M  V30 BEGIN CTAB
M  V30 COUNTS 45 47 0 0 0
M  V30 BEGIN ATOM
M  V30 1 C 3.678577 -2.305064 1.071130 0
M  V30 2 C 2.551735 -2.798123 0.238529 0
M  V30 3 C 2.289419 -4.122582 0.004526 0
M  V30 4 C 1.209209 -4.539702 -0.782555 0
M  V30 5 C 0.372503 -3.571218 -1.347693 0
M  V30 6 C 0.668588 -2.238046 -1.088645 0
M  V30 7 C -0.279419 -1.262776 -1.745236 0
M  V30 8 C 1.739612 -1.829764 -0.308404 0
M  V30 9 O 1.817885 -0.449185 -0.204216 0
M  V30 10 C 2.467215 0.422652 -1.061442 0
M  V30 11 C 2.369004 1.861699 -0.614374 0
M  V30 12 S 0.640066 2.413124 -0.404860 0
M  V30 13 C -0.055526 1.610248 1.050522 0
M  V30 14 N 0.633546 0.755913 1.823610 0
M  V30 15 C -0.100763 0.314040 2.855541 0
M  V30 16 C 0.275555 -0.573273 3.852642 0
M  V30 17 C -0.712441 -0.847343 4.802747 0
M  V30 18 C -1.948771 -0.248647 4.702349 0
M  V30 19 C -2.268915 0.634173 3.677664 0
M  V30 20 C -1.341069 0.948001 2.706383 0
M  V30 21 N -1.266115 1.721042 1.600666 0
M  V30 22 C -2.362985 2.501742 1.170309 0
M  V30 23 C -3.310756 1.833779 0.278580 0
M  V30 24 O -3.289337 2.127732 -0.981401 0
M  V30 25 O -4.338469 0.914868 0.217401 0
M  V30 26 H 3.740348 -2.869166 2.038100 0
M  V30 27 H 4.616012 -2.613352 0.519764 0
M  V30 28 H 3.683925 -1.225662 1.208747 0
M  V30 29 H 2.932591 -4.884485 0.439879 0
M  V30 30 H 1.061626 -5.605553 -0.923203 0
M  V30 31 H -0.457308 -3.903558 -1.957228 0
M  V30 32 H -1.250667 -1.704374 -1.955877 0
M  V30 33 H 0.233054 -1.020023 -2.722969 0
M  V30 34 H -0.396733 -0.333125 -1.168678 0
M  V30 35 H 3.569874 0.172283 -1.026258 0
M  V30 36 H 2.191539 0.312223 -2.136180 0
M  V30 37 H 2.827314 1.988986 0.402252 0
M  V30 38 H 2.860159 2.555421 -1.312915 0
M  V30 39 H 1.261481 -0.992674 3.851860 0
M  V30 40 H -0.411937 -1.540323 5.575448 0
M  V30 41 H -2.690400 -0.495428 5.472736 0
M  V30 42 H -3.239658 1.105758 3.602158 0
M  V30 43 H -2.933265 2.947730 2.014377 0
M  V30 44 H -1.935011 3.388562 0.602720 0
M  V30 45 H -4.272463 0.070468 -0.318363 0
M  V30 END ATOM
M  V30 BEGIN BOND
M  V30 1 1 1 2
M  V30 2 2 2 3
M  V30 3 1 3 4
M  V30 4 2 4 5
M  V30 5 1 5 6
M  V30 6 1 6 7
M  V30 7 2 6 8
M  V30 8 1 8 9
M  V30 9 1 9 10
M  V30 10 1 10 11
M  V30 11 1 11 12
M  V30 12 1 12 13
M  V30 13 2 13 14
M  V30 14 1 14 15
M  V30 15 2 15 16
M  V30 16 1 16 17
M  V30 17 2 17 18
M  V30 18 1 18 19
M  V30 19 2 19 20
M  V30 20 1 20 21
M  V30 21 1 21 22
M  V30 22 1 22 23
M  V30 23 2 23 24
M  V30 24 1 23 25
M  V30 25 1 8 2
M  V30 26 1 21 13
M  V30 27 1 20 15
M  V30 28 1 1 26
M  V30 29 1 1 27
M  V30 30 1 1 28
M  V30 31 1 3 29
M  V30 32 1 4 30
M  V30 33 1 5 31
M  V30 34 1 7 32
M  V30 35 1 7 33
M  V30 36 1 7 34
M  V30 37 1 10 35
M  V30 38 1 10 36
M  V30 39 1 11 37
M  V30 40 1 11 38
M  V30 41 1 16 39
M  V30 42 1 17 40
M  V30 43 1 18 41
M  V30 44 1 19 42
M  V30 45 1 22 43
M  V30 46 1 22 44
M  V30 47 1 25 45
M  V30 END BOND
M  V30 END CTAB
M  END
>  <Dataset>  (725) 
ChEMBL_Kinases

>  <Ligand_Instance>  (725) 
nan

>  <PDB_ID>  (725) 
nan

>  <Standardized_SMILES>  (725) 
Cc1cccc(C)c1OCCSc1nc2ccccc2n1CC(=O)O

>  <Name>  (725) 
nan

>  <Pocket>  (725) 
nan

>  <ATP_Site>  (725) 
nan

>  <Peripheral>  (725) 
nan

>  <Num_H_Atoms_ProtBoundConf>  (725) 
nan

>  <Num_Resolved_Atoms>  (725) 
nan

>  <Num_Not_Resolved_Atoms>  (725) 
nan

$$$$
CHEMBL1440199
     RDKit          3D

  0  0  0  0  0  0  0  0  0  0999 V3000
M  V30 BEGIN CTAB
M  V30 COUNTS 47 48 0 0 0
M  V30 BEGIN ATOM
M  V30 1 C 3.118083 -5.227162 0.357110 0
M  V30 2 O 3.349711 -3.951595 -0.164586 0
M  V30 3 C 2.182258 -3.349557 -0.595978 0
M  V30 4 C 2.530231 -1.980923 -1.141115 0
M  V30 5 C 3.172900 -1.110262 -0.095305 0
M  V30 6 N 2.369520 -0.871678 1.064925 0
M  V30 7 C 1.086292 -0.210007 1.041912 0
M  V30 8 O 0.859600 0.090116 -0.151265 0
M  V30 9 C 0.499695 -0.117620 2.394574 0
M  V30 10 C -0.832277 0.558656 2.468023 0
M  V30 11 N -0.751138 1.889566 1.997931 0
M  V30 12 S -1.849249 2.425943 0.854410 0
M  V30 13 O -1.552256 3.903576 0.604091 0
M  V30 14 O -3.250330 2.468150 1.459495 0
M  V30 15 C -1.879043 1.645156 -0.673026 0
M  V30 16 C -2.688523 0.541155 -0.848341 0
M  V30 17 C -2.811908 -0.178578 -2.018604 0
M  V30 18 C -2.050320 0.266555 -3.084485 0
M  V30 19 Cl -2.142303 -0.588320 -4.616939 0
M  V30 20 C -1.204410 1.366393 -3.012940 0
M  V30 21 C -1.143603 2.026378 -1.803154 0
M  V30 22 C -1.147110 0.564386 3.975083 0
M  V30 23 C -2.054114 -0.192873 4.689499 0
M  V30 24 C -1.951912 0.191500 6.010925 0
M  V30 25 C -0.982057 1.169850 6.037442 0
M  V30 26 O -0.521859 1.370003 4.812061 0
M  V30 27 H 2.667354 -5.846421 -0.441911 0
M  V30 28 H 4.050960 -5.673909 0.732121 0
M  V30 29 H 2.413238 -5.153511 1.210521 0
M  V30 30 H 1.457537 -3.222291 0.237734 0
M  V30 31 H 1.751776 -3.994840 -1.372514 0
M  V30 32 H 1.648614 -1.497551 -1.579378 0
M  V30 33 H 3.291002 -2.161322 -1.956273 0
M  V30 34 H 4.150010 -1.578296 0.171746 0
M  V30 35 H 3.390116 -0.103221 -0.569159 0
M  V30 36 H 2.803577 -1.230856 1.974909 0
M  V30 37 H 0.471575 -1.141186 2.843166 0
M  V30 38 H 1.234687 0.429912 3.060756 0
M  V30 39 H -1.593800 -0.076588 1.974814 0
M  V30 40 H 0.208274 2.286383 1.943195 0
M  V30 41 H -3.301088 0.167886 -0.022608 0
M  V30 42 H -3.461640 -1.038790 -2.105594 0
M  V30 43 H -0.609764 1.716148 -3.840607 0
M  V30 44 H -0.502440 2.891633 -1.683407 0
M  V30 45 H -2.693356 -0.931210 4.233728 0
M  V30 46 H -2.523887 -0.205548 6.838880 0
M  V30 47 H -0.618538 1.720503 6.909736 0
M  V30 END ATOM
M  V30 BEGIN BOND
M  V30 1 1 1 2
M  V30 2 1 2 3
M  V30 3 1 3 4
M  V30 4 1 4 5
M  V30 5 1 5 6
M  V30 6 1 6 7
M  V30 7 2 7 8
M  V30 8 1 7 9
M  V30 9 1 9 10
M  V30 10 1 10 11
M  V30 11 1 11 12
M  V30 12 2 12 13
M  V30 13 2 12 14
M  V30 14 1 12 15
M  V30 15 2 15 16
M  V30 16 1 16 17
M  V30 17 2 17 18
M  V30 18 1 18 19
M  V30 19 1 18 20
M  V30 20 2 20 21
M  V30 21 1 10 22
M  V30 22 2 22 23
M  V30 23 1 23 24
M  V30 24 2 24 25
M  V30 25 1 25 26
M  V30 26 1 21 15
M  V30 27 1 26 22
M  V30 28 1 1 27
M  V30 29 1 1 28
M  V30 30 1 1 29
M  V30 31 1 3 30
M  V30 32 1 3 31
M  V30 33 1 4 32
M  V30 34 1 4 33
M  V30 35 1 5 34
M  V30 36 1 5 35
M  V30 37 1 6 36
M  V30 38 1 9 37
M  V30 39 1 9 38
M  V30 40 1 10 39
M  V30 41 1 11 40
M  V30 42 1 16 41
M  V30 43 1 17 42
M  V30 44 1 20 43
M  V30 45 1 21 44
M  V30 46 1 23 45
M  V30 47 1 24 46
M  V30 48 1 25 47
M  V30 END BOND
M  V30 END CTAB
M  END
>  <Dataset>  (726) 
ChEMBL_Kinases

>  <Ligand_Instance>  (726) 
nan

>  <PDB_ID>  (726) 
nan

>  <Standardized_SMILES>  (726) 
COCCCNC(=O)CC(NS(=O)(=O)c1ccc(Cl)cc1)c1ccco1

>  <Name>  (726) 
nan

>  <Pocket>  (726) 
nan

>  <ATP_Site>  (726) 
nan

>  <Peripheral>  (726) 
nan

>  <Num_H_Atoms_ProtBoundConf>  (726) 
nan

>  <Num_Resolved_Atoms>  (726) 
nan

>  <Num_Not_Resolved_Atoms>  (726) 
nan

$$$$
CHEMBL1439205
     RDKit          3D

  0  0  0  0  0  0  0  0  0  0999 V3000
M  V30 BEGIN CTAB
M  V30 COUNTS 45 48 0 0 0
M  V30 BEGIN ATOM
M  V30 1 C 0.684137 -1.652092 4.588297 0
M  V30 2 C 0.905125 -0.835445 3.363812 0
M  V30 3 N 2.065478 -0.166681 3.167911 0
M  V30 4 N 2.006024 0.481190 2.005170 0
M  V30 5 C 2.871344 1.283899 1.337748 0
M  V30 6 C 4.190806 1.537866 1.983647 0
M  V30 7 F 5.096066 0.528755 1.710923 0
M  V30 8 F 4.060501 1.740479 3.347305 0
M  V30 9 F 4.762061 2.695133 1.465162 0
M  V30 10 C 2.500118 1.821163 0.110538 0
M  V30 11 C 1.263241 1.545338 -0.431314 0
M  V30 12 C 0.843802 2.093660 -1.715921 0
M  V30 13 C 1.604403 2.922239 -2.512785 0
M  V30 14 C 1.187513 3.428426 -3.723486 0
M  V30 15 C -0.068587 3.100603 -4.192132 0
M  V30 16 Cl -0.594181 3.749590 -5.735880 0
M  V30 17 C -0.865243 2.269730 -3.421309 0
M  V30 18 C -0.406733 1.781575 -2.207261 0
M  V30 19 N 0.432684 0.739560 0.269642 0
M  V30 20 C 0.789700 0.218153 1.457452 0
M  V30 21 C 0.053085 -0.622752 2.297571 0
M  V30 22 C -1.268953 -1.161519 2.138306 0
M  V30 23 O -2.314545 -0.489011 1.953944 0
M  V30 24 N -1.514409 -2.561226 2.177910 0
M  V30 25 C -2.832867 -3.129907 2.019523 0
M  V30 26 C -2.875887 -4.088011 0.850909 0
M  V30 27 O -1.590089 -4.417224 0.408386 0
M  V30 28 C -0.897063 -4.858961 1.521893 0
M  V30 29 C -0.573041 -3.654741 2.372306 0
M  V30 30 H 1.274309 -2.581515 4.608920 0
M  V30 31 H 0.910178 -1.023312 5.490685 0
M  V30 32 H -0.390395 -1.917931 4.686259 0
M  V30 33 H 3.205274 2.442773 -0.379759 0
M  V30 34 H 2.591023 3.193266 -2.166665 0
M  V30 35 H 1.845947 4.070199 -4.282576 0
M  V30 36 H -1.826332 2.062421 -3.855377 0
M  V30 37 H -1.113465 1.143068 -1.690702 0
M  V30 38 H -3.144853 -3.731813 2.919901 0
M  V30 39 H -3.633520 -2.375253 1.903088 0
M  V30 40 H -3.396739 -5.036992 1.075120 0
M  V30 41 H -3.392152 -3.612089 -0.025353 0
M  V30 42 H 0.056722 -5.354235 1.179865 0
M  V30 43 H -1.434291 -5.636283 2.094405 0
M  V30 44 H 0.453530 -3.339084 2.125675 0
M  V30 45 H -0.690894 -3.976013 3.428394 0
M  V30 END ATOM
M  V30 BEGIN BOND
M  V30 1 1 1 2
M  V30 2 2 2 3
M  V30 3 1 3 4
M  V30 4 1 4 5
M  V30 5 1 5 6
M  V30 6 1 6 7
M  V30 7 1 6 8
M  V30 8 1 6 9
M  V30 9 2 5 10
M  V30 10 1 10 11
M  V30 11 1 11 12
M  V30 12 2 12 13
M  V30 13 1 13 14
M  V30 14 2 14 15
M  V30 15 1 15 16
M  V30 16 1 15 17
M  V30 17 2 17 18
M  V30 18 2 11 19
M  V30 19 1 19 20
M  V30 20 2 20 21
M  V30 21 1 21 22
M  V30 22 2 22 23
M  V30 23 1 22 24
M  V30 24 1 24 25
M  V30 25 1 25 26
M  V30 26 1 26 27
M  V30 27 1 27 28
M  V30 28 1 28 29
M  V30 29 1 21 2
M  V30 30 1 29 24
M  V30 31 1 20 4
M  V30 32 1 18 12
M  V30 33 1 1 30
M  V30 34 1 1 31
M  V30 35 1 1 32
M  V30 36 1 10 33
M  V30 37 1 13 34
M  V30 38 1 14 35
M  V30 39 1 17 36
M  V30 40 1 18 37
M  V30 41 1 25 38
M  V30 42 1 25 39
M  V30 43 1 26 40
M  V30 44 1 26 41
M  V30 45 1 28 42
M  V30 46 1 28 43
M  V30 47 1 29 44
M  V30 48 1 29 45
M  V30 END BOND
M  V30 END CTAB
M  END
>  <Dataset>  (727) 
ChEMBL_Kinases

>  <Ligand_Instance>  (727) 
nan

>  <PDB_ID>  (727) 
nan

>  <Standardized_SMILES>  (727) 
Cc1nn2c(C(F)(F)F)cc(-c3ccc(Cl)cc3)nc2c1C(=O)N1CCOCC1

>  <Name>  (727) 
nan

>  <Pocket>  (727) 
nan

>  <ATP_Site>  (727) 
nan

>  <Peripheral>  (727) 
nan

>  <Num_H_Atoms_ProtBoundConf>  (727) 
nan

>  <Num_Resolved_Atoms>  (727) 
nan

>  <Num_Not_Resolved_Atoms>  (727) 
nan

$$$$
CHEMBL1439353
     RDKit          3D

  0  0  0  0  0  0  0  0  0  0999 V3000
M  V30 BEGIN CTAB
M  V30 COUNTS 52 55 0 0 0
M  V30 BEGIN ATOM
M  V30 1 C -1.256791 -1.934447 5.937302 0
M  V30 2 C -0.298685 -0.806342 6.151955 0
M  V30 3 O 1.005061 -1.086796 5.684672 0
M  V30 4 C 1.291543 -1.382651 4.379155 0
M  V30 5 C 2.622899 -1.641500 4.042037 0
M  V30 6 C 2.972305 -1.946089 2.737539 0
M  V30 7 C 2.054231 -2.012690 1.710482 0
M  V30 8 C 2.615437 -2.351091 0.388258 0
M  V30 9 S 4.388588 -1.969784 0.298655 0
M  V30 10 C 4.469403 -1.379507 -1.416846 0
M  V30 11 C 3.022516 -1.341970 -1.754245 0
M  V30 12 O 2.839436 -1.173887 -3.010298 0
M  V30 13 N 2.099895 -1.493881 -0.663184 0
M  V30 14 C 0.884626 -0.745351 -0.895421 0
M  V30 15 C 0.596987 0.554655 -0.525396 0
M  V30 16 C 1.569781 1.418704 0.221391 0
M  V30 17 N -0.641195 0.881304 -0.933902 0
M  V30 18 C -1.298610 2.177199 -0.723791 0
M  V30 19 N -1.174710 -0.174621 -1.564614 0
M  V30 20 C -2.475331 -0.216460 -2.140006 0
M  V30 21 C -3.283832 -1.335591 -1.928277 0
M  V30 22 C -4.550742 -1.460581 -2.444583 0
M  V30 23 C -4.994154 -0.401169 -3.199776 0
M  V30 24 C -4.266681 0.761174 -3.471242 0
M  V30 25 C -3.006673 0.796299 -2.911299 0
M  V30 26 C -0.260987 -1.176585 -1.552142 0
M  V30 27 O -0.417942 -2.329215 -2.057509 0
M  V30 28 C 0.753029 -1.759569 2.041630 0
M  V30 29 C 0.392594 -1.456734 3.328872 0
M  V30 30 H -0.748777 -2.781717 5.423550 0
M  V30 31 H -2.163255 -1.594838 5.395704 0
M  V30 32 H -1.618555 -2.286510 6.923548 0
M  V30 33 H -0.256865 -0.515297 7.220988 0
M  V30 34 H -0.641199 0.081405 5.557411 0
M  V30 35 H 3.374311 -1.595175 4.839453 0
M  V30 36 H 4.028569 -2.128501 2.589870 0
M  V30 37 H 2.518030 -3.424483 0.136544 0
M  V30 38 H 5.068334 -2.041554 -2.056553 0
M  V30 39 H 4.803368 -0.324303 -1.380978 0
M  V30 40 H 1.591787 1.083485 1.272638 0
M  V30 41 H 1.289023 2.486994 0.150784 0
M  V30 42 H 2.602511 1.328737 -0.172262 0
M  V30 43 H -1.051058 2.892062 -1.539176 0
M  V30 44 H -2.400482 2.036432 -0.728434 0
M  V30 45 H -0.936704 2.658595 0.207496 0
M  V30 46 H -2.906696 -2.161154 -1.325622 0
M  V30 47 H -5.172628 -2.320671 -2.282265 0
M  V30 48 H -5.988173 -0.468297 -3.621089 0
M  V30 49 H -4.663782 1.559549 -4.069144 0
M  V30 50 H -2.416467 1.679417 -3.100238 0
M  V30 51 H 0.043984 -1.813829 1.242556 0
M  V30 52 H -0.642932 -1.259716 3.569489 0
M  V30 END ATOM
M  V30 BEGIN BOND
M  V30 1 1 1 2
M  V30 2 1 2 3
M  V30 3 1 3 4
M  V30 4 2 4 5
M  V30 5 1 5 6
M  V30 6 2 6 7
M  V30 7 1 7 8
M  V30 8 1 8 9
M  V30 9 1 9 10
M  V30 10 1 10 11
M  V30 11 2 11 12
M  V30 12 1 11 13
M  V30 13 1 13 14
M  V30 14 2 14 15
M  V30 15 1 15 16
M  V30 16 1 15 17
M  V30 17 1 17 18
M  V30 18 1 17 19
M  V30 19 1 19 20
M  V30 20 2 20 21
M  V30 21 1 21 22
M  V30 22 2 22 23
M  V30 23 1 23 24
M  V30 24 2 24 25
M  V30 25 1 19 26
M  V30 26 2 26 27
M  V30 27 1 7 28
M  V30 28 2 28 29
M  V30 29 1 29 4
M  V30 30 1 13 8
M  V30 31 1 26 14
M  V30 32 1 25 20
M  V30 33 1 1 30
M  V30 34 1 1 31
M  V30 35 1 1 32
M  V30 36 1 2 33
M  V30 37 1 2 34
M  V30 38 1 5 35
M  V30 39 1 6 36
M  V30 40 1 8 37
M  V30 41 1 10 38
M  V30 42 1 10 39
M  V30 43 1 16 40
M  V30 44 1 16 41
M  V30 45 1 16 42
M  V30 46 1 18 43
M  V30 47 1 18 44
M  V30 48 1 18 45
M  V30 49 1 21 46
M  V30 50 1 22 47
M  V30 51 1 23 48
M  V30 52 1 24 49
M  V30 53 1 25 50
M  V30 54 1 28 51
M  V30 55 1 29 52
M  V30 END BOND
M  V30 END CTAB
M  END
>  <Dataset>  (728) 
ChEMBL_Kinases

>  <Ligand_Instance>  (728) 
nan

>  <PDB_ID>  (728) 
nan

>  <Standardized_SMILES>  (728) 
CCOc1ccc(C2SCC(=O)N2c2c(C)n(C)n(-c3ccccc3)c2=O)cc1

>  <Name>  (728) 
nan

>  <Pocket>  (728) 
nan

>  <ATP_Site>  (728) 
nan

>  <Peripheral>  (728) 
nan

>  <Num_H_Atoms_ProtBoundConf>  (728) 
nan

>  <Num_Resolved_Atoms>  (728) 
nan

>  <Num_Not_Resolved_Atoms>  (728) 
nan

$$$$
CHEMBL1439590
     RDKit          3D

  0  0  0  0  0  0  0  0  0  0999 V3000
M  V30 BEGIN CTAB
M  V30 COUNTS 58 60 0 0 0
M  V30 BEGIN ATOM
M  V30 1 C 3.934235 -0.087240 5.891357 0
M  V30 2 C 4.505113 -0.615167 4.623083 0
M  V30 3 O 3.518889 -1.064434 3.713270 0
M  V30 4 C 2.520284 -0.222567 3.208117 0
M  V30 5 O 2.564092 0.961227 3.620037 0
M  V30 6 C 1.496738 -0.697739 2.264099 0
M  V30 7 C 0.636825 0.201584 1.879102 0
M  V30 8 N 0.388530 1.570046 2.120448 0
M  V30 9 C 0.908468 2.655183 1.368419 0
M  V30 10 C 1.750829 2.457775 0.297723 0
M  V30 11 C 2.245664 3.540800 -0.426114 0
M  V30 12 C 1.896384 4.842065 -0.079081 0
M  V30 13 O 2.488941 5.766189 -0.918040 0
M  V30 14 C 2.321671 7.169250 -0.809673 0
M  V30 15 C 1.053483 5.003373 0.995335 0
M  V30 16 C 0.561056 3.939329 1.715434 0
M  V30 17 S -0.474089 -0.597721 0.691208 0
M  V30 18 C 0.259436 -2.241744 0.922891 0
M  V30 19 C -0.225296 -3.321751 0.359595 0
M  V30 20 C -1.362571 -3.505320 -0.517005 0
M  V30 21 C -2.143223 -4.619090 -0.168863 0
M  V30 22 C -3.284880 -5.016264 -0.870778 0
M  V30 23 O -4.021795 -6.127530 -0.480187 0
M  V30 24 C -3.604931 -6.853847 0.645391 0
M  V30 25 C -3.611902 -4.230674 -1.958448 0
M  V30 26 O -4.739642 -4.546005 -2.728952 0
M  V30 27 C -4.665471 -5.415162 -3.857159 0
M  V30 28 C -2.861186 -3.137849 -2.315985 0
M  V30 29 O -3.239101 -2.394722 -3.416966 0
M  V30 30 C -2.597992 -1.267957 -3.926475 0
M  V30 31 C -1.741265 -2.760694 -1.613186 0
M  V30 32 C 1.393711 -2.047504 1.811439 0
M  V30 33 O 2.181523 -2.978070 2.129878 0
M  V30 34 H 2.822399 -0.135560 5.927103 0
M  V30 35 H 4.316127 -0.738472 6.733207 0
M  V30 36 H 4.322584 0.926574 6.087571 0
M  V30 37 H 5.146543 -1.510368 4.808947 0
M  V30 38 H 5.158430 0.173021 4.165480 0
M  V30 39 H -0.249006 1.747999 2.944866 0
M  V30 40 H 1.979894 1.405568 0.089100 0
M  V30 41 H 2.903546 3.240213 -1.252376 0
M  V30 42 H 3.318356 7.689100 -0.921883 0
M  V30 43 H 1.950382 7.436748 0.211079 0
M  V30 44 H 1.680780 7.550933 -1.613616 0
M  V30 45 H 0.839328 6.045527 1.190633 0
M  V30 46 H -0.090329 4.133651 2.543281 0
M  V30 47 H 0.370481 -4.208962 0.634966 0
M  V30 48 H -1.910877 -5.257997 0.686981 0
M  V30 49 H -4.360384 -7.615882 0.905664 0
M  V30 50 H -2.632917 -7.367629 0.531796 0
M  V30 51 H -3.538933 -6.210205 1.571979 0
M  V30 52 H -5.132030 -6.394863 -3.602849 0
M  V30 53 H -5.323323 -4.954873 -4.635808 0
M  V30 54 H -3.616124 -5.530241 -4.223480 0
M  V30 55 H -2.819341 -0.337889 -3.371078 0
M  V30 56 H -2.861996 -1.168417 -5.013554 0
M  V30 57 H -1.482069 -1.392620 -3.851387 0
M  V30 58 H -1.099444 -1.920978 -1.829270 0
M  V30 END ATOM
M  V30 BEGIN BOND
M  V30 1 1 1 2
M  V30 2 1 2 3
M  V30 3 1 3 4
M  V30 4 2 4 5
M  V30 5 1 4 6
M  V30 6 2 6 7
M  V30 7 1 7 8
M  V30 8 1 8 9
M  V30 9 2 9 10
M  V30 10 1 10 11
M  V30 11 2 11 12
M  V30 12 1 12 13
M  V30 13 1 13 14
M  V30 14 1 12 15
M  V30 15 2 15 16
M  V30 16 1 7 17
M  V30 17 1 17 18
M  V30 18 2 18 19
M  V30 19 1 19 20
M  V30 20 2 20 21
M  V30 21 1 21 22
M  V30 22 1 22 23
M  V30 23 1 23 24
M  V30 24 2 22 25
M  V30 25 1 25 26
M  V30 26 1 26 27
M  V30 27 1 25 28
M  V30 28 1 28 29
M  V30 29 1 29 30
M  V30 30 2 28 31
M  V30 31 1 18 32
M  V30 32 2 32 33
M  V30 33 1 32 6
M  V30 34 1 16 9
M  V30 35 1 31 20
M  V30 36 1 1 34
M  V30 37 1 1 35
M  V30 38 1 1 36
M  V30 39 1 2 37
M  V30 40 1 2 38
M  V30 41 1 8 39
M  V30 42 1 10 40
M  V30 43 1 11 41
M  V30 44 1 14 42
M  V30 45 1 14 43
M  V30 46 1 14 44
M  V30 47 1 15 45
M  V30 48 1 16 46
M  V30 49 1 19 47
M  V30 50 1 21 48
M  V30 51 1 24 49
M  V30 52 1 24 50
M  V30 53 1 24 51
M  V30 54 1 27 52
M  V30 55 1 27 53
M  V30 56 1 27 54
M  V30 57 1 30 55
M  V30 58 1 30 56
M  V30 59 1 30 57
M  V30 60 1 31 58
M  V30 END BOND
M  V30 END CTAB
M  END
>  <Dataset>  (729) 
ChEMBL_Kinases

>  <Ligand_Instance>  (729) 
nan

>  <PDB_ID>  (729) 
nan

>  <Standardized_SMILES>  (729) 
CCOC(=O)C1=C(Nc2ccc(OC)cc2)S/C(=C\c2cc(OC)c(OC)c(OC)c2)C1=O

>  <Name>  (729) 
nan

>  <Pocket>  (729) 
nan

>  <ATP_Site>  (729) 
nan

>  <Peripheral>  (729) 
nan

>  <Num_H_Atoms_ProtBoundConf>  (729) 
nan

>  <Num_Resolved_Atoms>  (729) 
nan

>  <Num_Not_Resolved_Atoms>  (729) 
nan

$$$$
CHEMBL1439708
     RDKit          3D

  0  0  0  0  0  0  0  0  0  0999 V3000
M  V30 BEGIN CTAB
M  V30 COUNTS 57 61 0 0 0
M  V30 BEGIN ATOM
M  V30 1 C -0.625713 -0.228402 6.164567 0
M  V30 2 C 0.202173 -0.250356 4.938918 0
M  V30 3 C 1.525006 0.077384 4.948246 0
M  V30 4 C 2.282563 0.052380 3.792494 0
M  V30 5 C 1.773150 -0.301776 2.543915 0
M  V30 6 C 2.651362 -0.317426 1.414465 0
M  V30 7 N 3.985450 -0.143610 1.566826 0
M  V30 8 N 4.559321 -0.198606 0.374786 0
M  V30 9 C 3.584298 -0.409004 -0.546754 0
M  V30 10 C 2.365127 -0.485956 0.088418 0
M  V30 11 C 1.164320 -0.685412 -0.745505 0
M  V30 12 C 0.351413 0.573197 -0.631725 0
M  V30 13 C 1.137663 1.726499 -0.750097 0
M  V30 14 C 0.618257 2.999824 -0.663617 0
M  V30 15 C -0.726694 3.183309 -0.452292 0
M  V30 16 C -1.488348 2.048398 -0.337799 0
M  V30 17 C -0.994902 0.768633 -0.420559 0
M  V30 18 O -1.711098 -0.405759 -0.313244 0
M  V30 19 C -2.543878 -0.862434 -1.320977 0
M  V30 20 O -2.900371 -0.469526 -2.478259 0
M  V30 21 N -3.160298 -2.113950 -0.940197 0
M  V30 22 C -2.991902 -2.855035 0.291520 0
M  V30 23 C -2.640702 -4.297135 0.069387 0
M  V30 24 O -3.370918 -4.904568 -0.933889 0
M  V30 25 C -3.364655 -4.157490 -2.093425 0
M  V30 26 C -4.099879 -2.869272 -1.782977 0
M  V30 27 C 1.641956 -0.800568 -2.178612 0
M  V30 28 C 0.575870 -1.049623 -3.151285 0
M  V30 29 N -0.269776 -1.256885 -3.949319 0
M  V30 30 C 2.823917 -0.733459 -2.772756 0
M  V30 31 N 3.097034 -0.864314 -4.179863 0
M  V30 32 O 3.870382 -0.518406 -1.893738 0
M  V30 33 C 0.446183 -0.616253 2.617131 0
M  V30 34 C -0.350429 -0.608316 3.730489 0
M  V30 35 H -1.501754 -0.912488 6.023353 0
M  V30 36 H -0.018165 -0.613506 7.025006 0
M  V30 37 H -0.937480 0.824586 6.365955 0
M  V30 38 H 1.947661 0.356151 5.897262 0
M  V30 39 H 3.315136 0.336808 3.952945 0
M  V30 40 H 4.599309 0.016228 2.416169 0
M  V30 41 H 0.569707 -1.552735 -0.469340 0
M  V30 42 H 2.225854 1.711166 -0.920627 0
M  V30 43 H 1.228078 3.886895 -0.755340 0
M  V30 44 H -1.178409 4.148639 -0.377478 0
M  V30 45 H -2.554121 2.127957 -0.170062 0
M  V30 46 H -3.930420 -2.749131 0.876701 0
M  V30 47 H -2.191678 -2.403496 0.913348 0
M  V30 48 H -1.559725 -4.438209 -0.122627 0
M  V30 49 H -2.870950 -4.839341 1.011479 0
M  V30 50 H -2.282476 -3.893808 -2.278281 0
M  V30 51 H -3.766133 -4.689568 -2.954407 0
M  V30 52 H -4.328102 -2.301147 -2.709551 0
M  V30 53 H -5.018268 -3.128783 -1.219178 0
M  V30 54 H 3.341949 -1.735502 -4.688154 0
M  V30 55 H 2.993424 0.101772 -4.556394 0
M  V30 56 H -0.044316 -0.921821 1.723740 0
M  V30 57 H -1.392991 -0.870504 3.702299 0
M  V30 END ATOM
M  V30 BEGIN BOND
M  V30 1 1 1 2
M  V30 2 2 2 3
M  V30 3 1 3 4
M  V30 4 2 4 5
M  V30 5 1 5 6
M  V30 6 1 6 7
M  V30 7 1 7 8
M  V30 8 2 8 9
M  V30 9 1 9 10
M  V30 10 1 10 11
M  V30 11 1 11 12
M  V30 12 2 12 13
M  V30 13 1 13 14
M  V30 14 2 14 15
M  V30 15 1 15 16
M  V30 16 2 16 17
M  V30 17 1 17 18
M  V30 18 1 18 19
M  V30 19 2 19 20
M  V30 20 1 19 21
M  V30 21 1 21 22
M  V30 22 1 22 23
M  V30 23 1 23 24
M  V30 24 1 24 25
M  V30 25 1 25 26
M  V30 26 1 11 27
M  V30 27 1 27 28
M  V30 28 3 28 29
M  V30 29 2 27 30
M  V30 30 1 30 31
M  V30 31 1 30 32
M  V30 32 1 5 33
M  V30 33 2 33 34
M  V30 34 1 34 2
M  V30 35 2 10 6
M  V30 36 1 17 12
M  V30 37 1 26 21
M  V30 38 1 32 9
M  V30 39 1 1 35
M  V30 40 1 1 36
M  V30 41 1 1 37
M  V30 42 1 3 38
M  V30 43 1 4 39
M  V30 44 1 7 40
M  V30 45 1 11 41
M  V30 46 1 13 42
M  V30 47 1 14 43
M  V30 48 1 15 44
M  V30 49 1 16 45
M  V30 50 1 22 46
M  V30 51 1 22 47
M  V30 52 1 23 48
M  V30 53 1 23 49
M  V30 54 1 25 50
M  V30 55 1 25 51
M  V30 56 1 26 52
M  V30 57 1 26 53
M  V30 58 1 31 54
M  V30 59 1 31 55
M  V30 60 1 33 56
M  V30 61 1 34 57
M  V30 END BOND
M  V30 END CTAB
M  END
>  <Dataset>  (730) 
ChEMBL_Kinases

>  <Ligand_Instance>  (730) 
nan

>  <PDB_ID>  (730) 
nan

>  <Standardized_SMILES>  (730) 
Cc1ccc(-c2[nH]nc3c2C(c2ccccc2OC(=O)N2CCOCC2)C(C#N)=C(N)O3)cc1

>  <Name>  (730) 
nan

>  <Pocket>  (730) 
nan

>  <ATP_Site>  (730) 
nan

>  <Peripheral>  (730) 
nan

>  <Num_H_Atoms_ProtBoundConf>  (730) 
nan

>  <Num_Resolved_Atoms>  (730) 
nan

>  <Num_Not_Resolved_Atoms>  (730) 
nan

$$$$
CHEMBL1439721
     RDKit          3D

  0  0  0  0  0  0  0  0  0  0999 V3000
M  V30 BEGIN CTAB
M  V30 COUNTS 39 41 0 0 0
M  V30 BEGIN ATOM
M  V30 1 N -1.022266 -2.194610 7.066638 0
M  V30 2 C -0.636005 -2.438478 6.002218 0
M  V30 3 C -0.157285 -2.754005 4.648471 0
M  V30 4 S 0.903359 -1.405625 4.096719 0
M  V30 5 C 1.553805 -1.650839 2.476751 0
M  V30 6 N 2.695732 -2.267838 2.176767 0
M  V30 7 N 2.853120 -2.260613 0.882584 0
M  V30 8 C 1.796868 -1.627837 0.317385 0
M  V30 9 C 1.738589 -1.487577 -1.149134 0
M  V30 10 C 2.364538 -0.285942 -1.686119 0
M  V30 11 C 1.866699 0.946470 -1.937918 0
M  V30 12 C 2.674800 1.924984 -2.452694 0
M  V30 13 C 4.019970 1.556671 -2.690524 0
M  V30 14 S 4.053570 -0.241465 -2.141889 0
M  V30 15 N 0.986537 -1.248657 1.326367 0
M  V30 16 C -0.221869 -0.554236 1.084073 0
M  V30 17 C -1.338983 -1.324746 0.466305 0
M  V30 18 C -2.147713 -0.382524 -0.400393 0
M  V30 19 C -2.099891 0.986159 0.230219 0
M  V30 20 C -2.055611 0.899239 1.737365 0
M  V30 21 C -0.833268 0.168697 2.258635 0
M  V30 22 H -0.993206 -2.854801 3.936081 0
M  V30 23 H 0.483825 -3.666258 4.705352 0
M  V30 24 H 2.161649 -2.374340 -1.668334 0
M  V30 25 H 0.672671 -1.475107 -1.524123 0
M  V30 26 H 0.824877 1.131308 -1.722962 0
M  V30 27 H 2.371319 2.935145 -2.686384 0
M  V30 28 H 4.801057 2.189305 -3.091063 0
M  V30 29 H 0.037231 0.296319 0.382713 0
M  V30 30 H -2.043182 -1.681652 1.275531 0
M  V30 31 H -1.059682 -2.252541 -0.057318 0
M  V30 32 H -3.179255 -0.743232 -0.563585 0
M  V30 33 H -1.576556 -0.307139 -1.357812 0
M  V30 34 H -3.090201 1.484748 0.014750 0
M  V30 35 H -1.352526 1.666415 -0.196510 0
M  V30 36 H -3.014769 0.414004 2.028934 0
M  V30 37 H -2.103181 1.912058 2.169871 0
M  V30 38 H -0.117451 0.850544 2.761435 0
M  V30 39 H -1.230348 -0.522808 3.027712 0
M  V30 END ATOM
M  V30 BEGIN BOND
M  V30 1 3 1 2
M  V30 2 1 2 3
M  V30 3 1 3 4
M  V30 4 1 4 5
M  V30 5 2 5 6
M  V30 6 1 6 7
M  V30 7 2 7 8
M  V30 8 1 8 9
M  V30 9 1 9 10
M  V30 10 2 10 11
M  V30 11 1 11 12
M  V30 12 2 12 13
M  V30 13 1 13 14
M  V30 14 1 8 15
M  V30 15 1 15 16
M  V30 16 1 16 17
M  V30 17 1 17 18
M  V30 18 1 18 19
M  V30 19 1 19 20
M  V30 20 1 20 21
M  V30 21 1 15 5
M  V30 22 1 21 16
M  V30 23 1 14 10
M  V30 24 1 3 22
M  V30 25 1 3 23
M  V30 26 1 9 24
M  V30 27 1 9 25
M  V30 28 1 11 26
M  V30 29 1 12 27
M  V30 30 1 13 28
M  V30 31 1 16 29
M  V30 32 1 17 30
M  V30 33 1 17 31
M  V30 34 1 18 32
M  V30 35 1 18 33
M  V30 36 1 19 34
M  V30 37 1 19 35
M  V30 38 1 20 36
M  V30 39 1 20 37
M  V30 40 1 21 38
M  V30 41 1 21 39
M  V30 END BOND
M  V30 END CTAB
M  END
>  <Dataset>  (731) 
ChEMBL_Kinases

>  <Ligand_Instance>  (731) 
nan

>  <PDB_ID>  (731) 
nan

>  <Standardized_SMILES>  (731) 
N#CCSc1nnc(Cc2cccs2)n1C1CCCCC1

>  <Name>  (731) 
nan

>  <Pocket>  (731) 
nan

>  <ATP_Site>  (731) 
nan

>  <Peripheral>  (731) 
nan

>  <Num_H_Atoms_ProtBoundConf>  (731) 
nan

>  <Num_Resolved_Atoms>  (731) 
nan

>  <Num_Not_Resolved_Atoms>  (731) 
nan

$$$$
CHEMBL1439869
     RDKit          3D

  0  0  0  0  0  0  0  0  0  0999 V3000
M  V30 BEGIN CTAB
M  V30 COUNTS 51 52 0 0 0
M  V30 BEGIN ATOM
M  V30 1 C 3.662238 -4.735383 0.961110 0
M  V30 2 C 3.837098 -4.374339 -0.477694 0
M  V30 3 N 4.345573 -2.986257 -0.656795 0
M  V30 4 C 5.677589 -2.888355 -0.200238 0
M  V30 5 C 6.306463 -1.581520 -0.559761 0
M  V30 6 C 3.351892 -2.141626 -0.066872 0
M  V30 7 C 3.498742 -0.687435 -0.074304 0
M  V30 8 N 2.331054 -0.072951 0.581994 0
M  V30 9 C 0.984355 -0.160742 0.179705 0
M  V30 10 O 0.803999 -0.849820 -0.865302 0
M  V30 11 C -0.195225 0.418498 0.788627 0
M  V30 12 C -0.254258 1.229324 1.894096 0
M  V30 13 O 0.880960 1.577519 2.542140 0
M  V30 14 N -1.386329 1.720516 2.399942 0
M  V30 15 C -2.588879 1.458729 1.860240 0
M  V30 16 C -3.755691 1.968794 2.384789 0
M  V30 17 C -4.979450 1.686978 1.812099 0
M  V30 18 O -6.139499 2.213506 2.359493 0
M  V30 19 C -6.148381 3.040830 3.493713 0
M  V30 20 C -5.007818 0.867885 0.682734 0
M  V30 21 O -6.256336 0.640011 0.182242 0
M  V30 22 C -6.505648 -0.146122 -0.934075 0
M  V30 23 C -3.825158 0.348126 0.147206 0
M  V30 24 C -2.618056 0.649595 0.743441 0
M  V30 25 C -1.440443 0.149126 0.231528 0
M  V30 26 O -1.559020 -0.664326 -0.904150 0
M  V30 27 H 3.592131 -5.860157 0.985938 0
M  V30 28 H 4.502174 -4.429980 1.592470 0
M  V30 29 H 2.689514 -4.401417 1.383671 0
M  V30 30 H 2.853217 -4.413449 -0.980427 0
M  V30 31 H 4.529422 -5.013200 -1.021824 0
M  V30 32 H 5.626297 -2.893993 0.931253 0
M  V30 33 H 6.311953 -3.766915 -0.431139 0
M  V30 34 H 6.612330 -0.960613 0.324148 0
M  V30 35 H 5.677346 -1.043836 -1.265643 0
M  V30 36 H 7.282483 -1.731734 -1.106558 0
M  V30 37 H 3.144412 -2.447218 1.010755 0
M  V30 38 H 2.389474 -2.424854 -0.573757 0
M  V30 39 H 3.496662 -0.211396 -1.078191 0
M  V30 40 H 4.364077 -0.370069 0.563861 0
M  V30 41 H 2.489573 0.495506 1.446196 0
M  V30 42 H 0.995442 2.485996 2.987205 0
M  V30 43 H -3.627941 2.588856 3.260442 0
M  V30 44 H -7.132343 2.999764 4.027128 0
M  V30 45 H -5.420472 2.617637 4.221985 0
M  V30 46 H -5.879751 4.097728 3.268634 0
M  V30 47 H -5.673533 -0.193495 -1.662245 0
M  V30 48 H -7.425977 0.236332 -1.434593 0
M  V30 49 H -6.758431 -1.206861 -0.677087 0
M  V30 50 H -3.881140 -0.279989 -0.723924 0
M  V30 51 H -1.528987 -1.679911 -0.829546 0
M  V30 END ATOM
M  V30 BEGIN BOND
M  V30 1 1 1 2
M  V30 2 1 2 3
M  V30 3 1 3 4
M  V30 4 1 4 5
M  V30 5 1 3 6
M  V30 6 1 6 7
M  V30 7 1 7 8
M  V30 8 1 8 9
M  V30 9 2 9 10
M  V30 10 1 9 11
M  V30 11 2 11 12
M  V30 12 1 12 13
M  V30 13 1 12 14
M  V30 14 2 14 15
M  V30 15 1 15 16
M  V30 16 2 16 17
M  V30 17 1 17 18
M  V30 18 1 18 19
M  V30 19 1 17 20
M  V30 20 1 20 21
M  V30 21 1 21 22
M  V30 22 2 20 23
M  V30 23 1 23 24
M  V30 24 2 24 25
M  V30 25 1 25 26
M  V30 26 1 25 11
M  V30 27 1 24 15
M  V30 28 1 1 27
M  V30 29 1 1 28
M  V30 30 1 1 29
M  V30 31 1 2 30
M  V30 32 1 2 31
M  V30 33 1 4 32
M  V30 34 1 4 33
M  V30 35 1 5 34
M  V30 36 1 5 35
M  V30 37 1 5 36
M  V30 38 1 6 37
M  V30 39 1 6 38
M  V30 40 1 7 39
M  V30 41 1 7 40
M  V30 42 1 8 41
M  V30 43 1 13 42
M  V30 44 1 16 43
M  V30 45 1 19 44
M  V30 46 1 19 45
M  V30 47 1 19 46
M  V30 48 1 22 47
M  V30 49 1 22 48
M  V30 50 1 22 49
M  V30 51 1 23 50
M  V30 52 1 26 51
M  V30 END BOND
M  V30 END CTAB
M  END
>  <Dataset>  (732) 
ChEMBL_Kinases

>  <Ligand_Instance>  (732) 
nan

>  <PDB_ID>  (732) 
nan

>  <Standardized_SMILES>  (732) 
CCN(CC)CCNC(=O)c1c(O)nc2cc(OC)c(OC)cc2c1O

>  <Name>  (732) 
nan

>  <Pocket>  (732) 
nan

>  <ATP_Site>  (732) 
nan

>  <Peripheral>  (732) 
nan

>  <Num_H_Atoms_ProtBoundConf>  (732) 
nan

>  <Num_Resolved_Atoms>  (732) 
nan

>  <Num_Not_Resolved_Atoms>  (732) 
nan

$$$$
CHEMBL1439938
     RDKit          3D

  0  0  0  0  0  0  0  0  0  0999 V3000
M  V30 BEGIN CTAB
M  V30 COUNTS 61 63 0 0 0
M  V30 BEGIN ATOM
M  V30 1 C 0.310652 -5.266077 4.078886 0
M  V30 2 O 1.707977 -5.386766 3.984985 0
M  V30 3 C 2.503460 -4.445106 3.330051 0
M  V30 4 C 2.005193 -3.318857 2.712948 0
M  V30 5 C 2.867842 -2.427604 2.084595 0
M  V30 6 C 2.327490 -1.252637 1.417425 0
M  V30 7 C 1.374104 -1.088725 0.511117 0
M  V30 8 C 0.568944 -2.189182 -0.088229 0
M  V30 9 O -0.721749 -1.744144 -0.172911 0
M  V30 10 C -0.889277 -0.642159 -1.004911 0
M  V30 11 C -0.301498 0.592541 -0.402250 0
M  V30 12 C -0.804825 1.825691 -0.254430 0
M  V30 13 C -2.144228 2.151634 -0.722823 0
M  V30 14 C -3.101489 2.827029 0.003305 0
M  V30 15 C -4.310643 3.073329 -0.604486 0
M  V30 16 O -5.336609 3.743846 0.043036 0
M  V30 17 C -5.326932 4.250150 1.335303 0
M  V30 18 C -4.610380 2.674221 -1.915335 0
M  V30 19 O -5.854800 2.952416 -2.480028 0
M  V30 20 C -6.021262 4.156966 -3.165168 0
M  V30 21 C -3.664377 1.998993 -2.655896 0
M  V30 22 O -3.894130 1.577573 -3.954316 0
M  V30 23 C -2.992468 0.897011 -4.768304 0
M  V30 24 C -2.440806 1.760349 -2.011440 0
M  V30 25 C 1.072393 0.294153 0.074736 0
M  V30 26 O 1.941396 1.206453 0.098855 0
M  V30 27 C 4.202582 -2.660871 2.074147 0
M  V30 28 C 4.734041 -3.788609 2.687518 0
M  V30 29 O 6.068578 -4.174445 2.766188 0
M  V30 30 C 7.036833 -3.350918 2.155120 0
M  V30 31 C 3.880944 -4.699994 3.328120 0
M  V30 32 O 4.350652 -5.861100 3.970211 0
M  V30 33 C 4.487232 -7.101328 3.338468 0
M  V30 34 H -0.131255 -6.275184 4.322518 0
M  V30 35 H 0.059249 -4.581386 4.938227 0
M  V30 36 H -0.164891 -4.944316 3.136969 0
M  V30 37 H 0.949794 -3.215632 2.779244 0
M  V30 38 H 2.863168 -0.361676 1.787790 0
M  V30 39 H 0.598740 -3.130003 0.456116 0
M  V30 40 H 1.003885 -2.389504 -1.122051 0
M  V30 41 H -1.990199 -0.482943 -1.016913 0
M  V30 42 H -0.450320 -0.880270 -1.986873 0
M  V30 43 H -0.175799 2.561390 0.224303 0
M  V30 44 H -2.876879 3.133501 1.002826 0
M  V30 45 H -4.898554 3.577560 2.094094 0
M  V30 46 H -6.406549 4.447069 1.596598 0
M  V30 47 H -4.866666 5.255986 1.319912 0
M  V30 48 H -6.283606 4.943632 -2.401191 0
M  V30 49 H -6.828678 4.082717 -3.926300 0
M  V30 50 H -5.098438 4.487469 -3.698336 0
M  V30 51 H -2.274973 0.240640 -4.276179 0
M  V30 52 H -2.391248 1.631764 -5.378600 0
M  V30 53 H -3.499310 0.265409 -5.543662 0
M  V30 54 H -1.717225 1.238983 -2.618018 0
M  V30 55 H 4.939299 -2.022704 1.611491 0
M  V30 56 H 6.694859 -2.934310 1.163513 0
M  V30 57 H 7.927891 -3.972289 1.868591 0
M  V30 58 H 7.330279 -2.485919 2.782622 0
M  V30 59 H 3.962081 -7.149033 2.349832 0
M  V30 60 H 4.108750 -7.929347 4.008624 0
M  V30 61 H 5.563940 -7.356056 3.165795 0
M  V30 END ATOM
M  V30 BEGIN BOND
M  V30 1 1 1 2
M  V30 2 1 2 3
M  V30 3 2 3 4
M  V30 4 1 4 5
M  V30 5 1 5 6
M  V30 6 2 6 7
M  V30 7 1 7 8
M  V30 8 1 8 9
M  V30 9 1 9 10
M  V30 10 1 10 11
M  V30 11 2 11 12
M  V30 12 1 12 13
M  V30 13 2 13 14
M  V30 14 1 14 15
M  V30 15 1 15 16
M  V30 16 1 16 17
M  V30 17 2 15 18
M  V30 18 1 18 19
M  V30 19 1 19 20
M  V30 20 1 18 21
M  V30 21 1 21 22
M  V30 22 1 22 23
M  V30 23 2 21 24
M  V30 24 1 11 25
M  V30 25 2 25 26
M  V30 26 2 5 27
M  V30 27 1 27 28
M  V30 28 1 28 29
M  V30 29 1 29 30
M  V30 30 2 28 31
M  V30 31 1 31 32
M  V30 32 1 32 33
M  V30 33 1 31 3
M  V30 34 1 25 7
M  V30 35 1 24 13
M  V30 36 1 1 34
M  V30 37 1 1 35
M  V30 38 1 1 36
M  V30 39 1 4 37
M  V30 40 1 6 38
M  V30 41 1 8 39
M  V30 42 1 8 40
M  V30 43 1 10 41
M  V30 44 1 10 42
M  V30 45 1 12 43
M  V30 46 1 14 44
M  V30 47 1 17 45
M  V30 48 1 17 46
M  V30 49 1 17 47
M  V30 50 1 20 48
M  V30 51 1 20 49
M  V30 52 1 20 50
M  V30 53 1 23 51
M  V30 54 1 23 52
M  V30 55 1 23 53
M  V30 56 1 24 54
M  V30 57 1 27 55
M  V30 58 1 30 56
M  V30 59 1 30 57
M  V30 60 1 30 58
M  V30 61 1 33 59
M  V30 62 1 33 60
M  V30 63 1 33 61
M  V30 END BOND
M  V30 END CTAB
M  END
>  <Dataset>  (733) 
ChEMBL_Kinases

>  <Ligand_Instance>  (733) 
nan

>  <PDB_ID>  (733) 
nan

>  <Standardized_SMILES>  (733) 
COc1cc(/C=C2\COC/C(=C\c3cc(OC)c(OC)c(OC)c3)C2=O)cc(OC)c1OC

>  <Name>  (733) 
nan

>  <Pocket>  (733) 
nan

>  <ATP_Site>  (733) 
nan

>  <Peripheral>  (733) 
nan

>  <Num_H_Atoms_ProtBoundConf>  (733) 
nan

>  <Num_Resolved_Atoms>  (733) 
nan

>  <Num_Not_Resolved_Atoms>  (733) 
nan

$$$$
CHEMBL1440157
     RDKit          3D

  0  0  0  0  0  0  0  0  0  0999 V3000
M  V30 BEGIN CTAB
M  V30 COUNTS 42 45 0 0 0
M  V30 BEGIN ATOM
M  V30 1 C 1.989752 -3.926934 1.359334 0
M  V30 2 O 2.232566 -2.671194 0.793899 0
M  V30 3 C 3.079218 -1.716846 1.296018 0
M  V30 4 C 3.735496 -2.067269 2.473252 0
M  V30 5 C 4.604854 -1.132855 3.021693 0
M  V30 6 C 4.851280 0.102980 2.475116 0
M  V30 7 C 4.190419 0.439672 1.301103 0
M  V30 8 C 3.321816 -0.464257 0.732004 0
M  V30 9 C 2.531358 -0.275832 -0.523879 0
M  V30 10 N 1.146884 -0.025868 -0.200776 0
M  V30 11 C 0.754530 1.101758 0.567793 0
M  V30 12 N 1.609778 1.982571 1.057194 0
M  V30 13 C 1.182728 3.005349 1.784026 0
M  V30 14 N -0.102749 3.203850 2.059244 0
M  V30 15 C -1.030022 2.334195 1.584820 0
M  V30 16 C -0.591334 1.259196 0.821680 0
M  V30 17 C -1.683163 0.416350 0.351773 0
M  V30 18 C -2.570543 -0.024781 1.342081 0
M  V30 19 C -3.659014 -0.818888 1.050842 0
M  V30 20 C -3.906826 -1.205708 -0.241953 0
M  V30 21 C -3.024853 -0.768706 -1.235906 0
M  V30 22 C -1.930212 0.029117 -0.948483 0
M  V30 23 O -3.520356 -1.306230 -2.418082 0
M  V30 24 C -4.232481 -2.494474 -2.052075 0
M  V30 25 O -4.889702 -1.986003 -0.880875 0
M  V30 26 H 1.080907 -4.397828 0.952586 0
M  V30 27 H 2.826591 -4.633855 1.165622 0
M  V30 28 H 1.838121 -3.889666 2.476584 0
M  V30 29 H 3.612266 -3.024287 2.991807 0
M  V30 30 H 5.114378 -1.413148 3.941547 0
M  V30 31 H 5.530002 0.819146 2.913385 0
M  V30 32 H 4.308440 1.376878 0.783214 0
M  V30 33 H 2.946443 0.605055 -1.087375 0
M  V30 34 H 2.666710 -1.160302 -1.153348 0
M  V30 35 H 0.476909 -0.722028 -0.559851 0
M  V30 36 H 1.916394 3.720719 2.176867 0
M  V30 37 H -2.046135 2.568490 1.853773 0
M  V30 38 H -2.462593 0.224893 2.390474 0
M  V30 39 H -4.349018 -1.161930 1.821342 0
M  V30 40 H -1.262379 0.370333 -1.700658 0
M  V30 41 H -4.924242 -2.832180 -2.816020 0
M  V30 42 H -3.497324 -3.232030 -1.688078 0
M  V30 END ATOM
M  V30 BEGIN BOND
M  V30 1 1 1 2
M  V30 2 1 2 3
M  V30 3 2 3 4
M  V30 4 1 4 5
M  V30 5 2 5 6
M  V30 6 1 6 7
M  V30 7 2 7 8
M  V30 8 1 8 9
M  V30 9 1 9 10
M  V30 10 1 10 11
M  V30 11 2 11 12
M  V30 12 1 12 13
M  V30 13 2 13 14
M  V30 14 1 14 15
M  V30 15 2 15 16
M  V30 16 1 16 17
M  V30 17 2 17 18
M  V30 18 1 18 19
M  V30 19 2 19 20
M  V30 20 1 20 21
M  V30 21 2 21 22
M  V30 22 1 21 23
M  V30 23 1 23 24
M  V30 24 1 24 25
M  V30 25 1 8 3
M  V30 26 1 16 11
M  V30 27 1 22 17
M  V30 28 1 25 20
M  V30 29 1 1 26
M  V30 30 1 1 27
M  V30 31 1 1 28
M  V30 32 1 4 29
M  V30 33 1 5 30
M  V30 34 1 6 31
M  V30 35 1 7 32
M  V30 36 1 9 33
M  V30 37 1 9 34
M  V30 38 1 10 35
M  V30 39 1 13 36
M  V30 40 1 15 37
M  V30 41 1 18 38
M  V30 42 1 19 39
M  V30 43 1 22 40
M  V30 44 1 24 41
M  V30 45 1 24 42
M  V30 END BOND
M  V30 END CTAB
M  END
>  <Dataset>  (734) 
ChEMBL_Kinases

>  <Ligand_Instance>  (734) 
nan

>  <PDB_ID>  (734) 
nan

>  <Standardized_SMILES>  (734) 
COc1ccccc1CNc1ncncc1-c1ccc2c(c1)OCO2

>  <Name>  (734) 
nan

>  <Pocket>  (734) 
nan

>  <ATP_Site>  (734) 
nan

>  <Peripheral>  (734) 
nan

>  <Num_H_Atoms_ProtBoundConf>  (734) 
nan

>  <Num_Resolved_Atoms>  (734) 
nan

>  <Num_Not_Resolved_Atoms>  (734) 
nan

$$$$
CHEMBL1439137
     RDKit          3D

  0  0  0  0  0  0  0  0  0  0999 V3000
M  V30 BEGIN CTAB
M  V30 COUNTS 31 33 0 0 0
M  V30 BEGIN ATOM
M  V30 1 C -3.612437 -2.809288 3.387463 0
M  V30 2 O -2.508618 -2.105928 3.930708 0
M  V30 3 C -1.385082 -1.912254 3.161915 0
M  V30 4 C -0.288935 -1.225999 3.670474 0
M  V30 5 C 0.845368 -1.022279 2.915049 0
M  V30 6 C 0.939001 -1.491759 1.621942 0
M  V30 7 P 2.380514 -1.265100 0.580298 0
M  V30 8 O 3.525018 -2.108872 0.897106 0
M  V30 9 N 1.825424 -1.377404 -1.105853 0
M  V30 10 C 1.454388 -0.049669 -1.479963 0
M  V30 11 C 0.668628 0.327942 -2.555082 0
M  V30 12 C 0.352594 1.639215 -2.852783 0
M  V30 13 C 0.851122 2.612378 -2.029763 0
M  V30 14 C 1.634600 2.242940 -0.956942 0
M  V30 15 C 1.948656 0.919158 -0.663505 0
M  V30 16 N 2.747563 0.459610 0.420809 0
M  V30 17 C -0.159767 -2.173749 1.127117 0
M  V30 18 C -1.302311 -2.385586 1.871230 0
M  V30 19 H -3.891661 -2.308072 2.436215 0
M  V30 20 H -4.495200 -2.755971 4.059092 0
M  V30 21 H -3.315190 -3.845384 3.121207 0
M  V30 22 H -0.365835 -0.856011 4.693040 0
M  V30 23 H 1.699928 -0.484704 3.318019 0
M  V30 24 H 1.809274 -2.265294 -1.629723 0
M  V30 25 H 0.259764 -0.416627 -3.223870 0
M  V30 26 H -0.270527 1.897649 -3.710141 0
M  V30 27 H 0.616797 3.651750 -2.242686 0
M  V30 28 H 2.000802 3.052404 -0.341364 0
M  V30 29 H 3.407826 1.019158 0.997832 0
M  V30 30 H -0.084574 -2.548526 0.094351 0
M  V30 31 H -2.132496 -2.938041 1.403270 0
M  V30 END ATOM
M  V30 BEGIN BOND
M  V30 1 1 1 2
M  V30 2 1 2 3
M  V30 3 2 3 4
M  V30 4 1 4 5
M  V30 5 2 5 6
M  V30 6 1 6 7
M  V30 7 2 7 8
M  V30 8 1 7 9
M  V30 9 1 9 10
M  V30 10 2 10 11
M  V30 11 1 11 12
M  V30 12 2 12 13
M  V30 13 1 13 14
M  V30 14 2 14 15
M  V30 15 1 15 16
M  V30 16 1 6 17
M  V30 17 2 17 18
M  V30 18 1 18 3
M  V30 19 1 16 7
M  V30 20 1 15 10
M  V30 21 1 1 19
M  V30 22 1 1 20
M  V30 23 1 1 21
M  V30 24 1 4 22
M  V30 25 1 5 23
M  V30 26 1 9 24
M  V30 27 1 11 25
M  V30 28 1 12 26
M  V30 29 1 13 27
M  V30 30 1 14 28
M  V30 31 1 16 29
M  V30 32 1 17 30
M  V30 33 1 18 31
M  V30 END BOND
M  V30 END CTAB
M  END
>  <Dataset>  (735) 
ChEMBL_Kinases

>  <Ligand_Instance>  (735) 
nan

>  <PDB_ID>  (735) 
nan

>  <Standardized_SMILES>  (735) 
COc1ccc(P2(=O)Nc3ccccc3N2)cc1

>  <Name>  (735) 
nan

>  <Pocket>  (735) 
nan

>  <ATP_Site>  (735) 
nan

>  <Peripheral>  (735) 
nan

>  <Num_H_Atoms_ProtBoundConf>  (735) 
nan

>  <Num_Resolved_Atoms>  (735) 
nan

>  <Num_Not_Resolved_Atoms>  (735) 
nan

$$$$
CHEMBL1433143
     RDKit          3D

  0  0  0  0  0  0  0  0  0  0999 V3000
M  V30 BEGIN CTAB
M  V30 COUNTS 33 35 0 0 0
M  V30 BEGIN ATOM
M  V30 1 C -1.469002 -4.233401 2.344064 0
M  V30 2 C -2.080321 -2.986812 1.773057 0
M  V30 3 C -1.277206 -2.324989 0.693951 0
M  V30 4 O -1.797569 -1.260226 0.207621 0
M  V30 5 O -0.048036 -2.879565 0.286509 0
M  V30 6 C 0.649395 -2.194856 -0.735610 0
M  V30 7 C 0.961701 -0.824078 -0.259229 0
M  V30 8 C 0.848776 -0.234602 0.983947 0
M  V30 9 C 1.227637 1.078866 1.126231 0
M  V30 10 O 1.092943 1.536774 2.287034 0
M  V30 11 N 1.703183 1.806645 0.098655 0
M  V30 12 C 2.046525 3.075228 0.330151 0
M  V30 13 C 2.544391 3.893385 -0.671872 0
M  V30 14 Br 3.051182 5.716082 -0.395149 0
M  V30 15 C 2.670878 3.325635 -1.942301 0
M  V30 16 C 2.303121 2.010444 -2.133162 0
M  V30 17 C 1.809925 1.221685 -1.112109 0
M  V30 18 N 1.444485 -0.079751 -1.294874 0
M  V30 19 C -3.577335 -3.042953 1.397855 0
M  V30 20 C -3.051058 -2.257085 2.577425 0
M  V30 21 Cl -3.124227 -0.483054 2.555740 0
M  V30 22 Cl -3.500582 -2.978548 4.144165 0
M  V30 23 H -1.072249 -4.911329 1.554820 0
M  V30 24 H -0.564644 -3.942114 2.938198 0
M  V30 25 H -2.205082 -4.711693 3.008666 0
M  V30 26 H -0.062858 -2.122955 -1.587467 0
M  V30 27 H 1.586677 -2.682861 -1.015724 0
M  V30 28 H 0.463812 -0.916647 1.707783 0
M  V30 29 H 1.942750 3.507057 1.327921 0
M  V30 30 H 3.047212 3.876337 -2.788468 0
M  V30 31 H 2.367593 1.481879 -3.093931 0
M  V30 32 H -3.951054 -2.415341 0.589040 0
M  V30 33 H -4.039984 -4.029229 1.532168 0
M  V30 END ATOM
M  V30 BEGIN BOND
M  V30 1 1 1 2
M  V30 2 1 2 3
M  V30 3 2 3 4
M  V30 4 1 3 5
M  V30 5 1 5 6
M  V30 6 1 6 7
M  V30 7 2 7 8
M  V30 8 1 8 9
M  V30 9 2 9 10
M  V30 10 1 9 11
M  V30 11 1 11 12
M  V30 12 2 12 13
M  V30 13 1 13 14
M  V30 14 1 13 15
M  V30 15 2 15 16
M  V30 16 1 16 17
M  V30 17 2 17 18
M  V30 18 1 2 19
M  V30 19 1 19 20
M  V30 20 1 20 21
M  V30 21 1 20 22
M  V30 22 1 20 2
M  V30 23 1 18 7
M  V30 24 1 17 11
M  V30 25 1 1 23
M  V30 26 1 1 24
M  V30 27 1 1 25
M  V30 28 1 6 26
M  V30 29 1 6 27
M  V30 30 1 8 28
M  V30 31 1 12 29
M  V30 32 1 15 30
M  V30 33 1 16 31
M  V30 34 1 19 32
M  V30 35 1 19 33
M  V30 END BOND
M  V30 END CTAB
M  END
>  <Dataset>  (736) 
ChEMBL_Kinases

>  <Ligand_Instance>  (736) 
nan

>  <PDB_ID>  (736) 
nan

>  <Standardized_SMILES>  (736) 
CC1(C(=O)OCc2cc(=O)n3cc(Br)ccc3n2)CC1(Cl)Cl

>  <Name>  (736) 
nan

>  <Pocket>  (736) 
nan

>  <ATP_Site>  (736) 
nan

>  <Peripheral>  (736) 
nan

>  <Num_H_Atoms_ProtBoundConf>  (736) 
nan

>  <Num_Resolved_Atoms>  (736) 
nan

>  <Num_Not_Resolved_Atoms>  (736) 
nan

$$$$
CHEMBL1433027
     RDKit          3D

  0  0  0  0  0  0  0  0  0  0999 V3000
M  V30 BEGIN CTAB
M  V30 COUNTS 54 56 0 0 0
M  V30 BEGIN ATOM
M  V30 1 C 4.926533 -5.370906 4.978261 0
M  V30 2 O 3.542591 -5.205077 4.719427 0
M  V30 3 C 3.082041 -3.980306 4.289527 0
M  V30 4 C 3.891708 -2.884053 4.090597 0
M  V30 5 C 3.473607 -1.642015 3.663544 0
M  V30 6 C 2.104674 -1.461807 3.402930 0
M  V30 7 C 1.675100 -0.149781 2.949808 0
M  V30 8 C 1.636553 0.115396 1.499468 0
M  V30 9 N 1.190518 1.472955 1.241986 0
M  V30 10 C 1.044743 2.006529 -0.083645 0
M  V30 11 O 1.310938 1.269217 -1.081501 0
M  V30 12 C 0.582625 3.416496 -0.205793 0
M  V30 13 S -1.224168 3.556854 -0.203788 0
M  V30 14 C -1.967724 2.825416 -1.646107 0
M  V30 15 N -2.144286 3.618730 -2.727999 0
M  V30 16 C -2.701855 3.155005 -3.859657 0
M  V30 17 N -2.836600 4.084193 -4.924325 0
M  V30 18 C -3.116180 1.837423 -3.952969 0
M  V30 19 C -3.686892 1.475783 -5.206947 0
M  V30 20 N -4.159529 1.198970 -6.223902 0
M  V30 21 C -2.938177 1.031156 -2.857201 0
M  V30 22 C -3.366201 -0.302350 -2.940023 0
M  V30 23 C -3.371882 -1.434763 -2.265562 0
M  V30 24 C -3.807350 -2.673345 -2.467011 0
M  V30 25 C -4.436130 -2.751320 -3.797135 0
M  V30 26 S -4.243098 -0.954985 -4.465239 0
M  V30 27 C -2.370747 1.519127 -1.717393 0
M  V30 28 C -2.154890 0.763023 -0.537206 0
M  V30 29 N -1.964939 0.154245 0.436723 0
M  V30 30 C 1.285327 -2.535950 3.594065 0
M  V30 31 C 1.727381 -3.766813 4.022061 0
M  V30 32 O 0.876360 -4.843387 4.209339 0
M  V30 33 C -0.507432 -4.756090 3.971526 0
M  V30 34 H 5.191088 -4.875609 5.956242 0
M  V30 35 H 5.125457 -6.458940 5.027722 0
M  V30 36 H 5.579471 -4.908539 4.226131 0
M  V30 37 H 4.967583 -2.966874 4.279696 0
M  V30 38 H 4.167020 -0.818433 3.528679 0
M  V30 39 H 2.360654 0.618732 3.414598 0
M  V30 40 H 0.673120 0.067897 3.393367 0
M  V30 41 H 2.672071 0.073700 1.075161 0
M  V30 42 H 1.041408 -0.545128 0.885149 0
M  V30 43 H 0.958165 2.107615 2.064544 0
M  V30 44 H 1.026232 3.885915 -1.113500 0
M  V30 45 H 0.967008 4.019401 0.642370 0
M  V30 46 H -3.680700 4.645875 -4.619766 0
M  V30 47 H -2.015793 3.766007 -5.524962 0
M  V30 48 H -2.956645 -1.564957 -1.288641 0
M  V30 49 H -4.101516 -3.687762 -2.486994 0
M  V30 50 H -5.014455 -3.098982 -4.852811 0
M  V30 51 H 0.241393 -2.361561 3.384668 0
M  V30 52 H -0.629540 -4.172005 3.015873 0
M  V30 53 H -0.938952 -5.754138 3.737610 0
M  V30 54 H -1.094730 -4.283236 4.757702 0
M  V30 END ATOM
M  V30 BEGIN BOND
M  V30 1 1 1 2
M  V30 2 1 2 3
M  V30 3 2 3 4
M  V30 4 1 4 5
M  V30 5 2 5 6
M  V30 6 1 6 7
M  V30 7 1 7 8
M  V30 8 1 8 9
M  V30 9 1 9 10
M  V30 10 2 10 11
M  V30 11 1 10 12
M  V30 12 1 12 13
M  V30 13 1 13 14
M  V30 14 2 14 15
M  V30 15 1 15 16
M  V30 16 1 16 17
M  V30 17 2 16 18
M  V30 18 1 18 19
M  V30 19 3 19 20
M  V30 20 1 18 21
M  V30 21 1 21 22
M  V30 22 2 22 23
M  V30 23 1 23 24
M  V30 24 2 24 25
M  V30 25 1 25 26
M  V30 26 2 21 27
M  V30 27 1 27 28
M  V30 28 3 28 29
M  V30 29 1 6 30
M  V30 30 2 30 31
M  V30 31 1 31 32
M  V30 32 1 32 33
M  V30 33 1 31 3
M  V30 34 1 27 14
M  V30 35 1 26 22
M  V30 36 1 1 34
M  V30 37 1 1 35
M  V30 38 1 1 36
M  V30 39 1 4 37
M  V30 40 1 5 38
M  V30 41 1 7 39
M  V30 42 1 7 40
M  V30 43 1 8 41
M  V30 44 1 8 42
M  V30 45 1 9 43
M  V30 46 1 12 44
M  V30 47 1 12 45
M  V30 48 1 17 46
M  V30 49 1 17 47
M  V30 50 1 23 48
M  V30 51 1 24 49
M  V30 52 1 25 50
M  V30 53 1 30 51
M  V30 54 1 33 52
M  V30 55 1 33 53
M  V30 56 1 33 54
M  V30 END BOND
M  V30 END CTAB
M  END
>  <Dataset>  (737) 
ChEMBL_Kinases

>  <Ligand_Instance>  (737) 
nan

>  <PDB_ID>  (737) 
nan

>  <Standardized_SMILES>  (737) 
COc1ccc(CCNC(=O)CSc2nc(N)c(C#N)c(-c3cccs3)c2C#N)cc1OC

>  <Name>  (737) 
nan

>  <Pocket>  (737) 
nan

>  <ATP_Site>  (737) 
nan

>  <Peripheral>  (737) 
nan

>  <Num_H_Atoms_ProtBoundConf>  (737) 
nan

>  <Num_Resolved_Atoms>  (737) 
nan

>  <Num_Not_Resolved_Atoms>  (737) 
nan

$$$$
CHEMBL1432831
     RDKit          3D

  0  0  0  0  0  0  0  0  0  0999 V3000
M  V30 BEGIN CTAB
M  V30 COUNTS 29 30 0 0 0
M  V30 BEGIN ATOM
M  V30 1 C -1.817802 -1.877980 4.057497 0
M  V30 2 N -1.116054 -2.183096 2.811443 0
M  V30 3 C -0.355397 -3.421982 2.757541 0
M  V30 4 C -1.110167 -1.381257 1.652352 0
M  V30 5 C 0.053377 -0.863499 1.119888 0
M  V30 6 C 0.135065 -0.074146 -0.006987 0
M  V30 7 C 1.389605 0.445729 -0.525584 0
M  V30 8 C 2.629768 0.220186 0.031711 0
M  V30 9 C 3.742053 0.775622 -0.564925 0
M  V30 10 C 3.705672 1.559590 -1.706141 0
M  V30 11 Cl 5.167562 2.227876 -2.400999 0
M  V30 12 C 2.447339 1.788715 -2.271998 0
M  V30 13 C 1.345778 1.225369 -1.661922 0
M  V30 14 Cl -0.202236 1.554113 -2.425900 0
M  V30 15 O -1.017347 0.174336 -0.581090 0
M  V30 16 C -2.154892 -0.288017 -0.123948 0
M  V30 17 O -3.213034 0.003091 -0.742152 0
M  V30 18 C -2.294025 -1.080560 0.996840 0
M  V30 19 Cl -3.840313 -1.671968 1.564572 0
M  V30 20 H -1.158010 -1.368730 4.790706 0
M  V30 21 H -2.677281 -1.217898 3.803661 0
M  V30 22 H -2.184629 -2.788745 4.554382 0
M  V30 23 H 0.485212 -3.345927 2.026107 0
M  V30 24 H -0.976797 -4.287419 2.417591 0
M  V30 25 H 0.011047 -3.651703 3.771719 0
M  V30 26 H 0.949084 -1.125256 1.665427 0
M  V30 27 H 2.689150 -0.380558 0.912061 0
M  V30 28 H 4.718122 0.585504 -0.108063 0
M  V30 29 H 2.372045 2.396212 -3.165095 0
M  V30 END ATOM
M  V30 BEGIN BOND
M  V30 1 1 1 2
M  V30 2 1 2 3
M  V30 3 1 2 4
M  V30 4 1 4 5
M  V30 5 2 5 6
M  V30 6 1 6 7
M  V30 7 2 7 8
M  V30 8 1 8 9
M  V30 9 2 9 10
M  V30 10 1 10 11
M  V30 11 1 10 12
M  V30 12 2 12 13
M  V30 13 1 13 14
M  V30 14 1 6 15
M  V30 15 1 15 16
M  V30 16 2 16 17
M  V30 17 1 16 18
M  V30 18 1 18 19
M  V30 19 2 18 4
M  V30 20 1 13 7
M  V30 21 1 1 20
M  V30 22 1 1 21
M  V30 23 1 1 22
M  V30 24 1 3 23
M  V30 25 1 3 24
M  V30 26 1 3 25
M  V30 27 1 5 26
M  V30 28 1 8 27
M  V30 29 1 9 28
M  V30 30 1 12 29
M  V30 END BOND
M  V30 END CTAB
M  END
>  <Dataset>  (738) 
ChEMBL_Kinases

>  <Ligand_Instance>  (738) 
nan

>  <PDB_ID>  (738) 
nan

>  <Standardized_SMILES>  (738) 
CN(C)c1cc(-c2ccc(Cl)cc2Cl)oc(=O)c1Cl

>  <Name>  (738) 
nan

>  <Pocket>  (738) 
nan

>  <ATP_Site>  (738) 
nan

>  <Peripheral>  (738) 
nan

>  <Num_H_Atoms_ProtBoundConf>  (738) 
nan

>  <Num_Resolved_Atoms>  (738) 
nan

>  <Num_Not_Resolved_Atoms>  (738) 
nan

$$$$
CHEMBL1432702
     RDKit          3D

  0  0  0  0  0  0  0  0  0  0999 V3000
M  V30 BEGIN CTAB
M  V30 COUNTS 29 31 0 0 0
M  V30 BEGIN ATOM
M  V30 1 F 2.374523 -3.209247 5.704674 0
M  V30 2 C 2.028405 -2.511225 4.593215 0
M  V30 3 C 0.870690 -2.866139 3.903434 0
M  V30 4 C 0.498785 -2.159150 2.757604 0
M  V30 5 C 1.248997 -1.105451 2.277297 0
M  V30 6 C 0.777821 -0.427224 1.070420 0
M  V30 7 C 1.428628 0.636704 0.485067 0
M  V30 8 C 0.911533 1.217118 -0.654913 0
M  V30 9 C 1.608360 2.368612 -1.295528 0
M  V30 10 F 2.981613 2.183647 -1.119248 0
M  V30 11 F 1.431352 2.373809 -2.670468 0
M  V30 12 F 1.292752 3.576024 -0.712545 0
M  V30 13 N -0.234667 0.717616 -1.171112 0
M  V30 14 C -0.881257 -0.319140 -0.612382 0
M  V30 15 N -2.095987 -0.840844 -1.168087 0
M  V30 16 C -2.485295 -0.870822 -2.451296 0
M  V30 17 N -3.689299 -1.438205 -2.597032 0
M  V30 18 C -4.082098 -1.783057 -1.358048 0
M  V30 19 N -3.098745 -1.411140 -0.502249 0
M  V30 20 N -0.356997 -0.874976 0.506667 0
M  V30 21 C 2.393538 -0.756932 2.961880 0
M  V30 22 C 2.767809 -1.451258 4.095681 0
M  V30 23 H 0.303543 -3.694067 4.301818 0
M  V30 24 H -0.416110 -2.519434 2.302355 0
M  V30 25 H 2.342584 1.006356 0.928927 0
M  V30 26 H -1.864452 -0.471110 -3.238959 0
M  V30 27 H -4.974454 -2.267193 -0.953719 0
M  V30 28 H 2.986797 0.053500 2.607748 0
M  V30 29 H 3.654529 -1.209172 4.657490 0
M  V30 END ATOM
M  V30 BEGIN BOND
M  V30 1 1 1 2
M  V30 2 2 2 3
M  V30 3 1 3 4
M  V30 4 2 4 5
M  V30 5 1 5 6
M  V30 6 2 6 7
M  V30 7 1 7 8
M  V30 8 1 8 9
M  V30 9 1 9 10
M  V30 10 1 9 11
M  V30 11 1 9 12
M  V30 12 2 8 13
M  V30 13 1 13 14
M  V30 14 1 14 15
M  V30 15 1 15 16
M  V30 16 2 16 17
M  V30 17 1 17 18
M  V30 18 2 18 19
M  V30 19 2 14 20
M  V30 20 1 5 21
M  V30 21 2 21 22
M  V30 22 1 22 2
M  V30 23 1 20 6
M  V30 24 1 19 15
M  V30 25 1 3 23
M  V30 26 1 4 24
M  V30 27 1 7 25
M  V30 28 1 16 26
M  V30 29 1 18 27
M  V30 30 1 21 28
M  V30 31 1 22 29
M  V30 END BOND
M  V30 END CTAB
M  END
>  <Dataset>  (739) 
ChEMBL_Kinases

>  <Ligand_Instance>  (739) 
nan

>  <PDB_ID>  (739) 
nan

>  <Standardized_SMILES>  (739) 
Fc1ccc(-c2cc(C(F)(F)F)nc(-n3cncn3)n2)cc1

>  <Name>  (739) 
nan

>  <Pocket>  (739) 
nan

>  <ATP_Site>  (739) 
nan

>  <Peripheral>  (739) 
nan

>  <Num_H_Atoms_ProtBoundConf>  (739) 
nan

>  <Num_Resolved_Atoms>  (739) 
nan

>  <Num_Not_Resolved_Atoms>  (739) 
nan

$$$$
CHEMBL1432651
     RDKit          3D

  0  0  0  0  0  0  0  0  0  0999 V3000
M  V30 BEGIN CTAB
M  V30 COUNTS 34 36 0 0 0
M  V30 BEGIN ATOM
M  V30 1 C -2.995906 -1.943949 3.825774 0
M  V30 2 C -2.319182 -3.076334 3.072578 0
M  V30 3 O -1.409484 -2.447395 2.199475 0
M  V30 4 C -0.576883 -3.132545 1.318694 0
M  V30 5 O -0.877772 -4.334661 1.543121 0
M  V30 6 C 0.269081 -2.211196 0.528501 0
M  V30 7 C -0.550746 -1.153125 -0.180774 0
M  V30 8 C 0.424476 -0.070983 -0.500778 0
M  V30 9 C 1.503199 -0.559976 -1.214049 0
M  V30 10 N 2.333858 0.470100 -1.463001 0
M  V30 11 C 1.805794 1.592954 -0.925246 0
M  V30 12 C 2.204759 2.913442 -0.868532 0
M  V30 13 C 1.394880 3.846997 -0.212107 0
M  V30 14 C 0.192859 3.478672 0.387729 0
M  V30 15 C -0.235442 2.155547 0.347005 0
M  V30 16 C 0.606654 1.285358 -0.314080 0
M  V30 17 C 1.460616 -2.013337 -1.500877 0
M  V30 18 N 1.140740 -2.844493 -0.388121 0
M  V30 19 H -3.761175 -1.505780 3.139866 0
M  V30 20 H -3.449185 -2.261331 4.779499 0
M  V30 21 H -2.254515 -1.112016 3.984730 0
M  V30 22 H -1.886222 -3.773699 3.789172 0
M  V30 23 H -3.113045 -3.560832 2.477145 0
M  V30 24 H 0.916363 -1.664932 1.272176 0
M  V30 25 H -1.316006 -0.817367 0.533747 0
M  V30 26 H -0.980340 -1.548472 -1.121534 0
M  V30 27 H 3.238807 0.390638 -1.990748 0
M  V30 28 H 3.136460 3.209758 -1.331185 0
M  V30 29 H 1.679231 4.891687 -0.149599 0
M  V30 30 H -0.440111 4.189458 0.896764 0
M  V30 31 H -1.158318 1.814381 0.795109 0
M  V30 32 H 2.401186 -2.305522 -2.014903 0
M  V30 33 H 0.631453 -2.156950 -2.247914 0
M  V30 34 H 1.982311 -3.287582 -0.009395 0
M  V30 END ATOM
M  V30 BEGIN BOND
M  V30 1 1 1 2
M  V30 2 1 2 3
M  V30 3 1 3 4
M  V30 4 2 4 5
M  V30 5 1 4 6
M  V30 6 1 6 7
M  V30 7 1 7 8
M  V30 8 2 8 9
M  V30 9 1 9 10
M  V30 10 1 10 11
M  V30 11 2 11 12
M  V30 12 1 12 13
M  V30 13 2 13 14
M  V30 14 1 14 15
M  V30 15 2 15 16
M  V30 16 1 9 17
M  V30 17 1 17 18
M  V30 18 1 18 6
M  V30 19 1 16 8
M  V30 20 1 16 11
M  V30 21 1 1 19
M  V30 22 1 1 20
M  V30 23 1 1 21
M  V30 24 1 2 22
M  V30 25 1 2 23
M  V30 26 1 6 24
M  V30 27 1 7 25
M  V30 28 1 7 26
M  V30 29 1 10 27
M  V30 30 1 12 28
M  V30 31 1 13 29
M  V30 32 1 14 30
M  V30 33 1 15 31
M  V30 34 1 17 32
M  V30 35 1 17 33
M  V30 36 1 18 34
M  V30 END BOND
M  V30 END CTAB
M  END
>  <Dataset>  (740) 
ChEMBL_Kinases

>  <Ligand_Instance>  (740) 
nan

>  <PDB_ID>  (740) 
nan

>  <Standardized_SMILES>  (740) 
CCOC(=O)C1Cc2c([nH]c3ccccc23)CN1

>  <Name>  (740) 
nan

>  <Pocket>  (740) 
nan

>  <ATP_Site>  (740) 
nan

>  <Peripheral>  (740) 
nan

>  <Num_H_Atoms_ProtBoundConf>  (740) 
nan

>  <Num_Resolved_Atoms>  (740) 
nan

>  <Num_Not_Resolved_Atoms>  (740) 
nan

$$$$
CHEMBL1432632
     RDKit          3D

  0  0  0  0  0  0  0  0  0  0999 V3000
M  V30 BEGIN CTAB
M  V30 COUNTS 28 30 0 0 0
M  V30 BEGIN ATOM
M  V30 1 C -3.088514 -1.587973 3.915358 0
M  V30 2 O -2.327755 -2.216441 2.900568 0
M  V30 3 C -1.396899 -1.449783 2.210896 0
M  V30 4 C -1.218809 -0.093408 2.513808 0
M  V30 5 C -0.295419 0.677777 1.833500 0
M  V30 6 C 0.420789 0.055047 0.866953 0
M  V30 7 C 1.482498 0.708104 0.000721 0
M  V30 8 N 2.252738 0.537923 -0.859161 0
M  V30 9 N 3.048158 1.420154 -1.366887 0
M  V30 10 C 3.947886 1.271156 -2.353428 0
M  V30 11 N 4.551145 2.448713 -2.555743 0
M  V30 12 N 4.045143 3.322712 -1.716898 0
M  V30 13 C 3.074610 2.647166 -0.953295 0
M  V30 14 S 1.780191 2.541359 0.350946 0
M  V30 15 C 0.312324 -1.268114 0.503783 0
M  V30 16 C -0.627326 -2.035187 1.202429 0
M  V30 17 O -0.846011 -3.374041 0.947908 0
M  V30 18 C -0.204507 -4.151421 0.003228 0
M  V30 19 H -3.539188 -0.660773 3.506219 0
M  V30 20 H -2.491386 -1.329223 4.795285 0
M  V30 21 H -3.921781 -2.275518 4.216915 0
M  V30 22 H -1.803573 0.389916 3.293944 0
M  V30 23 H -0.094154 1.712074 1.996604 0
M  V30 24 H 4.318333 0.477963 -3.022664 0
M  V30 25 H 0.869175 -1.790867 -0.261571 0
M  V30 26 H -0.678344 -4.109785 -1.008683 0
M  V30 27 H 0.858048 -3.906285 -0.169037 0
M  V30 28 H -0.221768 -5.214229 0.310913 0
M  V30 END ATOM
M  V30 BEGIN BOND
M  V30 1 1 1 2
M  V30 2 1 2 3
M  V30 3 2 3 4
M  V30 4 1 4 5
M  V30 5 2 5 6
M  V30 6 1 6 7
M  V30 7 2 7 8
M  V30 8 1 8 9
M  V30 9 1 9 10
M  V30 10 2 10 11
M  V30 11 1 11 12
M  V30 12 2 12 13
M  V30 13 1 13 14
M  V30 14 1 6 15
M  V30 15 2 15 16
M  V30 16 1 16 17
M  V30 17 1 17 18
M  V30 18 1 16 3
M  V30 19 1 14 7
M  V30 20 1 13 9
M  V30 21 1 1 19
M  V30 22 1 1 20
M  V30 23 1 1 21
M  V30 24 1 4 22
M  V30 25 1 5 23
M  V30 26 1 10 24
M  V30 27 1 15 25
M  V30 28 1 18 26
M  V30 29 1 18 27
M  V30 30 1 18 28
M  V30 END BOND
M  V30 END CTAB
M  END
>  <Dataset>  (741) 
ChEMBL_Kinases

>  <Ligand_Instance>  (741) 
nan

>  <PDB_ID>  (741) 
nan

>  <Standardized_SMILES>  (741) 
COc1ccc(-c2nn3cnnc3s2)cc1OC

>  <Name>  (741) 
nan

>  <Pocket>  (741) 
nan

>  <ATP_Site>  (741) 
nan

>  <Peripheral>  (741) 
nan

>  <Num_H_Atoms_ProtBoundConf>  (741) 
nan

>  <Num_Resolved_Atoms>  (741) 
nan

>  <Num_Not_Resolved_Atoms>  (741) 
nan

$$$$
CHEMBL1432513
     RDKit          3D

  0  0  0  0  0  0  0  0  0  0999 V3000
M  V30 BEGIN CTAB
M  V30 COUNTS 46 48 0 0 0
M  V30 BEGIN ATOM
M  V30 1 C -1.769201 -6.264053 3.202161 0
M  V30 2 C -1.107817 -5.562620 2.081694 0
M  V30 3 C -0.054227 -4.684769 2.364220 0
M  V30 4 C 0.540613 -4.014817 1.275122 0
M  V30 5 C 0.118658 -4.196814 -0.061438 0
M  V30 6 S 1.161709 -3.169333 -1.044701 0
M  V30 7 C 0.734622 -1.473074 -1.081389 0
M  V30 8 C 1.590581 -0.590335 -1.690596 0
M  V30 9 C 1.312237 0.755095 -1.697441 0
M  V30 10 C 0.218227 1.365456 -1.133133 0
M  V30 11 C -0.155782 2.789702 -1.051066 0
M  V30 12 N 0.320286 3.469772 0.138645 0
M  V30 13 C 1.746400 3.575134 0.108438 0
M  V30 14 C 2.408343 2.680284 1.123312 0
M  V30 15 C 1.983786 3.034441 2.533616 0
M  V30 16 C 0.530340 3.444257 2.552700 0
M  V30 17 C -0.141786 2.806178 1.347966 0
M  V30 18 C -0.654301 0.458745 -0.515346 0
M  V30 19 C -0.356258 -0.884455 -0.521703 0
M  V30 20 N -1.342453 -1.659650 0.128608 0 CHG=1 VAL=4
M  V30 21 O -2.120331 -1.299579 1.040951 0
M  V30 22 O -2.287157 -2.404049 0.750771 0 CHG=-1 VAL=1
M  V30 23 C -0.918460 -5.072805 -0.287183 0
M  V30 24 C -1.503356 -5.727241 0.759952 0
M  V30 25 H -1.727769 -5.548284 4.078939 0
M  V30 26 H -1.237082 -7.201223 3.461831 0
M  V30 27 H -2.833571 -6.419053 2.929653 0
M  V30 28 H 0.218133 -4.592423 3.407111 0
M  V30 29 H 1.333389 -3.374438 1.700701 0
M  V30 30 H 2.492774 -0.936249 -2.179732 0
M  V30 31 H 1.997391 1.424686 -2.190078 0
M  V30 32 H 0.364154 3.301304 -1.910393 0
M  V30 33 H -1.229040 2.947624 -1.239982 0
M  V30 34 H 2.042558 4.642881 0.365855 0
M  V30 35 H 2.178998 3.372512 -0.877053 0
M  V30 36 H 2.245323 1.622925 0.890540 0
M  V30 37 H 3.499646 2.870510 1.057750 0
M  V30 38 H 2.639120 3.828335 2.906495 0
M  V30 39 H 2.170223 2.111707 3.139492 0
M  V30 40 H 0.348505 4.511017 2.662681 0
M  V30 41 H 0.085190 2.930251 3.453864 0
M  V30 42 H 0.218606 1.764279 1.343840 0
M  V30 43 H -1.215107 2.942255 1.437214 0
M  V30 44 H -1.555359 0.872920 -0.039021 0
M  V30 45 H -1.107356 -5.101676 -1.335755 0
M  V30 46 H -2.295105 -6.391800 0.499788 0
M  V30 END ATOM
M  V30 BEGIN BOND
M  V30 1 1 1 2
M  V30 2 2 2 3
M  V30 3 1 3 4
M  V30 4 2 4 5
M  V30 5 1 5 6
M  V30 6 1 6 7
M  V30 7 2 7 8
M  V30 8 1 8 9
M  V30 9 2 9 10
M  V30 10 1 10 11
M  V30 11 1 11 12
M  V30 12 1 12 13
M  V30 13 1 13 14
M  V30 14 1 14 15
M  V30 15 1 15 16
M  V30 16 1 16 17
M  V30 17 1 10 18
M  V30 18 2 18 19
M  V30 19 1 19 20
M  V30 20 2 20 21
M  V30 21 1 20 22
M  V30 22 1 5 23
M  V30 23 2 23 24
M  V30 24 1 24 2
M  V30 25 1 19 7
M  V30 26 1 17 12
M  V30 27 1 1 25
M  V30 28 1 1 26
M  V30 29 1 1 27
M  V30 30 1 3 28
M  V30 31 1 4 29
M  V30 32 1 8 30
M  V30 33 1 9 31
M  V30 34 1 11 32
M  V30 35 1 11 33
M  V30 36 1 13 34
M  V30 37 1 13 35
M  V30 38 1 14 36
M  V30 39 1 14 37
M  V30 40 1 15 38
M  V30 41 1 15 39
M  V30 42 1 16 40
M  V30 43 1 16 41
M  V30 44 1 17 42
M  V30 45 1 17 43
M  V30 46 1 18 44
M  V30 47 1 23 45
M  V30 48 1 24 46
M  V30 END BOND
M  V30 END CTAB
M  END
>  <Dataset>  (742) 
ChEMBL_Kinases

>  <Ligand_Instance>  (742) 
nan

>  <PDB_ID>  (742) 
nan

>  <Standardized_SMILES>  (742) 
Cc1ccc(Sc2ccc(CN3CCCCC3)cc2[N+](=O)[O-])cc1

>  <Name>  (742) 
nan

>  <Pocket>  (742) 
nan

>  <ATP_Site>  (742) 
nan

>  <Peripheral>  (742) 
nan

>  <Num_H_Atoms_ProtBoundConf>  (742) 
nan

>  <Num_Resolved_Atoms>  (742) 
nan

>  <Num_Not_Resolved_Atoms>  (742) 
nan

$$$$
CHEMBL1432472
     RDKit          3D

  0  0  0  0  0  0  0  0  0  0999 V3000
M  V30 BEGIN CTAB
M  V30 COUNTS 21 21 0 0 0
M  V30 BEGIN ATOM
M  V30 1 C 0.482064 1.439402 3.506284 0
M  V30 2 C -0.349373 0.249670 3.010055 0
M  V30 3 O -0.318884 0.227432 1.588801 0
M  V30 4 C 0.873515 0.103714 0.893300 0
M  V30 5 O 2.000334 0.003285 1.448203 0
M  V30 6 C 0.803341 0.090689 -0.559480 0
M  V30 7 C 0.656766 -1.131788 -1.162697 0
M  V30 8 C 0.550219 -2.497188 -0.632637 0
M  V30 9 N 0.581962 -1.211210 -2.578126 0
M  V30 10 S 0.726727 0.539230 -3.086983 0
M  V30 11 C 0.866982 1.160394 -1.393783 0
M  V30 12 S 1.051508 2.865168 -0.971173 0
M  V30 13 H 0.359063 2.229379 2.728366 0
M  V30 14 H 1.538091 1.118230 3.449975 0
M  V30 15 H 0.154586 1.765851 4.512365 0
M  V30 16 H -1.394987 0.429149 3.295454 0
M  V30 17 H 0.007190 -0.690507 3.436355 0
M  V30 18 H 1.283430 -3.210466 -1.004635 0
M  V30 19 H 0.675228 -2.428705 0.469067 0
M  V30 20 H -0.503308 -2.853575 -0.817640 0
M  V30 21 H 2.003386 3.087011 0.037487 0
M  V30 END ATOM
M  V30 BEGIN BOND
M  V30 1 1 1 2
M  V30 2 1 2 3
M  V30 3 1 3 4
M  V30 4 2 4 5
M  V30 5 1 4 6
M  V30 6 1 6 7
M  V30 7 1 7 8
M  V30 8 2 7 9
M  V30 9 1 9 10
M  V30 10 1 10 11
M  V30 11 1 11 12
M  V30 12 2 11 6
M  V30 13 1 1 13
M  V30 14 1 1 14
M  V30 15 1 1 15
M  V30 16 1 2 16
M  V30 17 1 2 17
M  V30 18 1 8 18
M  V30 19 1 8 19
M  V30 20 1 8 20
M  V30 21 1 12 21
M  V30 END BOND
M  V30 END CTAB
M  END
>  <Dataset>  (743) 
ChEMBL_Kinases

>  <Ligand_Instance>  (743) 
nan

>  <PDB_ID>  (743) 
nan

>  <Standardized_SMILES>  (743) 
CCOC(=O)c1c(C)nsc1S

>  <Name>  (743) 
nan

>  <Pocket>  (743) 
nan

>  <ATP_Site>  (743) 
nan

>  <Peripheral>  (743) 
nan

>  <Num_H_Atoms_ProtBoundConf>  (743) 
nan

>  <Num_Resolved_Atoms>  (743) 
nan

>  <Num_Not_Resolved_Atoms>  (743) 
nan

$$$$
CHEMBL1432291
     RDKit          3D

  0  0  0  0  0  0  0  0  0  0999 V3000
M  V30 BEGIN CTAB
M  V30 COUNTS 53 54 0 0 0
M  V30 BEGIN ATOM
M  V30 1 C -0.595061 -5.962488 1.890899 0
M  V30 2 C -0.259923 -5.449985 0.547799 0
M  V30 3 O -0.533283 -6.246962 -0.373959 0
M  V30 4 C 0.332345 -4.150590 0.280654 0
M  V30 5 C 0.642013 -3.242256 1.259241 0
M  V30 6 C 0.503464 -3.220319 2.730000 0
M  V30 7 N 1.167931 -2.220149 0.536109 0
M  V30 8 C 1.210064 -2.413082 -0.794930 0
M  V30 9 C 1.701985 -1.463024 -1.750651 0
M  V30 10 O 1.692766 -1.944581 -2.945875 0
M  V30 11 C 2.209096 -0.120531 -1.770756 0
M  V30 12 N 1.719674 0.858716 -0.854774 0
M  V30 13 C 0.594047 1.740493 -1.170303 0
M  V30 14 O -0.046985 1.668474 -2.277770 0
M  V30 15 N 0.280987 2.690696 -0.118134 0
M  V30 16 C 0.827058 2.047351 1.051433 0
M  V30 17 C 1.273308 3.063910 2.087653 0
M  V30 18 C -0.047734 0.990989 1.634405 0
M  V30 19 C -1.381673 1.387798 2.138944 0
M  V30 20 C -2.352422 1.983849 1.211140 0
M  V30 21 C -3.658463 2.286782 1.983438 0
M  V30 22 C -2.728550 1.162576 0.029808 0
M  V30 23 C 2.035831 1.360017 0.463823 0
M  V30 24 O 3.228503 1.143952 0.884257 0
M  V30 25 C 0.663721 -3.677450 -0.969433 0
M  V30 26 C 0.520337 -4.282768 -2.315159 0
M  V30 27 H -0.684181 -7.082100 1.871490 0
M  V30 28 H 0.244005 -5.777445 2.618371 0
M  V30 29 H -1.528910 -5.560062 2.313262 0
M  V30 30 H 0.577583 -2.161049 3.118640 0
M  V30 31 H -0.479951 -3.562695 3.060531 0
M  V30 32 H 1.302316 -3.764256 3.260050 0
M  V30 33 H 1.527198 -1.359280 1.001643 0
M  V30 34 H 2.033900 0.331928 -2.801882 0
M  V30 35 H 3.349203 -0.127738 -1.618607 0
M  V30 36 H -0.223649 3.575077 -0.420592 0
M  V30 37 H 0.626199 3.011837 3.002789 0
M  V30 38 H 1.349237 4.089931 1.681482 0
M  V30 39 H 2.289454 2.759455 2.414949 0
M  V30 40 H -0.150449 0.215555 0.805706 0
M  V30 41 H 0.552980 0.460096 2.400112 0
M  V30 42 H -1.856082 0.466896 2.598062 0
M  V30 43 H -1.303919 2.080174 3.030521 0
M  V30 44 H -2.030446 2.990271 0.866498 0
M  V30 45 H -3.420949 2.751980 2.954706 0
M  V30 46 H -4.146948 1.297637 2.095254 0
M  V30 47 H -4.252305 2.923724 1.312255 0
M  V30 48 H -1.953201 0.401692 -0.242621 0
M  V30 49 H -3.617303 0.543103 0.305956 0
M  V30 50 H -3.039727 1.759615 -0.850817 0
M  V30 51 H -0.125660 -5.155257 -2.309243 0
M  V30 52 H 1.505580 -4.551890 -2.752240 0
M  V30 53 H 0.043057 -3.562601 -3.036531 0
M  V30 END ATOM
M  V30 BEGIN BOND
M  V30 1 1 1 2
M  V30 2 2 2 3
M  V30 3 1 2 4
M  V30 4 2 4 5
M  V30 5 1 5 6
M  V30 6 1 5 7
M  V30 7 1 7 8
M  V30 8 1 8 9
M  V30 9 2 9 10
M  V30 10 1 9 11
M  V30 11 1 11 12
M  V30 12 1 12 13
M  V30 13 2 13 14
M  V30 14 1 13 15
M  V30 15 1 15 16
M  V30 16 1 16 17
M  V30 17 1 16 18
M  V30 18 1 18 19
M  V30 19 1 19 20
M  V30 20 1 20 21
M  V30 21 1 20 22
M  V30 22 1 16 23
M  V30 23 2 23 24
M  V30 24 2 8 25
M  V30 25 1 25 26
M  V30 26 1 25 4
M  V30 27 1 23 12
M  V30 28 1 1 27
M  V30 29 1 1 28
M  V30 30 1 1 29
M  V30 31 1 6 30
M  V30 32 1 6 31
M  V30 33 1 6 32
M  V30 34 1 7 33
M  V30 35 1 11 34
M  V30 36 1 11 35
M  V30 37 1 15 36
M  V30 38 1 17 37
M  V30 39 1 17 38
M  V30 40 1 17 39
M  V30 41 1 18 40
M  V30 42 1 18 41
M  V30 43 1 19 42
M  V30 44 1 19 43
M  V30 45 1 20 44
M  V30 46 1 21 45
M  V30 47 1 21 46
M  V30 48 1 21 47
M  V30 49 1 22 48
M  V30 50 1 22 49
M  V30 51 1 22 50
M  V30 52 1 26 51
M  V30 53 1 26 52
M  V30 54 1 26 53
M  V30 END BOND
M  V30 END CTAB
M  END
>  <Dataset>  (744) 
ChEMBL_Kinases

>  <Ligand_Instance>  (744) 
nan

>  <PDB_ID>  (744) 
nan

>  <Standardized_SMILES>  (744) 
CC(=O)c1c(C)[nH]c(C(=O)CN2C(=O)NC(C)(CCC(C)C)C2=O)c1C

>  <Name>  (744) 
nan

>  <Pocket>  (744) 
nan

>  <ATP_Site>  (744) 
nan

>  <Peripheral>  (744) 
nan

>  <Num_H_Atoms_ProtBoundConf>  (744) 
nan

>  <Num_Resolved_Atoms>  (744) 
nan

>  <Num_Not_Resolved_Atoms>  (744) 
nan

$$$$
CHEMBL1432209
     RDKit          3D

  0  0  0  0  0  0  0  0  0  0999 V3000
M  V30 BEGIN CTAB
M  V30 COUNTS 39 42 0 0 0
M  V30 BEGIN ATOM
M  V30 1 C 0.941796 -1.567790 5.900304 0
M  V30 2 C 0.766611 -0.715365 4.677812 0
M  V30 3 C 0.713730 -1.381954 3.458842 0
M  V30 4 C 0.819253 -2.844895 3.321779 0
M  V30 5 C 0.554107 -0.614647 2.336314 0
M  V30 6 C 0.488346 -1.168186 1.073764 0
M  V30 7 C 0.326783 -0.362094 -0.035322 0
M  V30 8 C 0.232881 -0.658534 -1.383637 0
M  V30 9 C 0.076561 0.544078 -2.067812 0
M  V30 10 O 0.078175 1.488883 -1.180112 0
M  V30 11 C 0.222568 1.012110 0.035205 0
M  V30 12 C 0.289565 1.554946 1.302070 0
M  V30 13 C 0.180354 3.034046 1.411550 0
M  V30 14 C 0.450377 0.777922 2.429279 0
M  V30 15 O 0.506416 1.368127 3.614177 0
M  V30 16 C 0.659450 0.661753 4.717262 0
M  V30 17 O 0.713299 1.216052 5.843992 0
M  V30 18 C -0.032824 0.310597 -3.535544 0
M  V30 19 C -1.152086 -0.671315 -3.820771 0
M  V30 20 C -0.999943 -1.943814 -3.023613 0
M  V30 21 C 0.265269 -1.932571 -2.184711 0
M  V30 22 H 0.836983 -0.906139 6.798525 0
M  V30 23 H 0.083325 -2.285932 5.955828 0
M  V30 24 H 1.906957 -2.087299 5.918431 0
M  V30 25 H 0.090891 -3.279701 2.604704 0
M  V30 26 H 0.793923 -3.375255 4.291598 0
M  V30 27 H 1.835569 -3.064315 2.902431 0
M  V30 28 H 0.560213 -2.230980 0.919051 0
M  V30 29 H 0.659348 3.356983 2.352717 0
M  V30 30 H 0.718867 3.519290 0.568877 0
M  V30 31 H -0.920121 3.251988 1.391430 0
M  V30 32 H -0.258119 1.226087 -4.100311 0
M  V30 33 H 0.905697 -0.160372 -3.890520 0
M  V30 34 H -1.137304 -0.919443 -4.902313 0
M  V30 35 H -2.147171 -0.188846 -3.635221 0
M  V30 36 H -1.852221 -2.067579 -2.310364 0
M  V30 37 H -0.951932 -2.846919 -3.665938 0
M  V30 38 H 1.144760 -1.892596 -2.836990 0
M  V30 39 H 0.216612 -2.797128 -1.506648 0
M  V30 END ATOM
M  V30 BEGIN BOND
M  V30 1 1 1 2
M  V30 2 2 2 3
M  V30 3 1 3 4
M  V30 4 1 3 5
M  V30 5 2 5 6
M  V30 6 1 6 7
M  V30 7 1 7 8
M  V30 8 2 8 9
M  V30 9 1 9 10
M  V30 10 1 10 11
M  V30 11 1 11 12
M  V30 12 1 12 13
M  V30 13 2 12 14
M  V30 14 1 14 15
M  V30 15 1 15 16
M  V30 16 2 16 17
M  V30 17 1 9 18
M  V30 18 1 18 19
M  V30 19 1 19 20
M  V30 20 1 20 21
M  V30 21 1 16 2
M  V30 22 1 14 5
M  V30 23 2 11 7
M  V30 24 1 21 8
M  V30 25 1 1 22
M  V30 26 1 1 23
M  V30 27 1 1 24
M  V30 28 1 4 25
M  V30 29 1 4 26
M  V30 30 1 4 27
M  V30 31 1 6 28
M  V30 32 1 13 29
M  V30 33 1 13 30
M  V30 34 1 13 31
M  V30 35 1 18 32
M  V30 36 1 18 33
M  V30 37 1 19 34
M  V30 38 1 19 35
M  V30 39 1 20 36
M  V30 40 1 20 37
M  V30 41 1 21 38
M  V30 42 1 21 39
M  V30 END BOND
M  V30 END CTAB
M  END
>  <Dataset>  (745) 
ChEMBL_Kinases

>  <Ligand_Instance>  (745) 
nan

>  <PDB_ID>  (745) 
nan

>  <Standardized_SMILES>  (745) 
Cc1c(C)c2cc3c4c(oc3c(C)c2oc1=O)CCCC4

>  <Name>  (745) 
nan

>  <Pocket>  (745) 
nan

>  <ATP_Site>  (745) 
nan

>  <Peripheral>  (745) 
nan

>  <Num_H_Atoms_ProtBoundConf>  (745) 
nan

>  <Num_Resolved_Atoms>  (745) 
nan

>  <Num_Not_Resolved_Atoms>  (745) 
nan

$$$$
CHEMBL1431901
     RDKit          3D

  0  0  0  0  0  0  0  0  0  0999 V3000
M  V30 BEGIN CTAB
M  V30 COUNTS 35 38 0 0 0
M  V30 BEGIN ATOM
M  V30 1 C -1.627823 -3.832568 -0.056856 0
M  V30 2 C -0.146664 -3.928100 -0.008705 0
M  V30 3 N 0.777978 -4.894544 -0.141409 0
M  V30 4 N 1.981593 -4.379631 0.004058 0
M  V30 5 C 1.893426 -3.048309 0.239116 0
M  V30 6 C 3.171513 -2.290176 0.431518 0
M  V30 7 C 0.531926 -2.732474 0.235797 0
M  V30 8 N 0.209920 -1.356875 0.468484 0
M  V30 9 C 0.126721 -0.532690 -0.706012 0
M  V30 10 O 0.321463 -0.974463 -1.874353 0
M  V30 11 C -0.205864 0.888308 -0.466221 0
M  V30 12 C -0.303010 1.740275 -1.547036 0
M  V30 13 C -0.608306 3.073676 -1.403410 0
M  V30 14 C -0.825121 3.572276 -0.120410 0
M  V30 15 C -0.720720 2.694479 0.941597 0
M  V30 16 C -0.942632 3.226818 2.196826 0
M  V30 17 C -0.872551 2.470260 3.350359 0
M  V30 18 Br -1.183340 3.222960 5.089090 0
M  V30 19 C -0.565393 1.125431 3.214417 0
M  V30 20 C -0.339333 0.571021 1.967708 0
M  V30 21 C -0.414052 1.345421 0.822771 0
M  V30 22 C -0.013423 -0.837792 1.775710 0
M  V30 23 O 0.069503 -1.594913 2.776856 0
M  V30 24 H -2.015012 -4.882113 -0.097304 0
M  V30 25 H -2.073076 -3.369361 0.834085 0
M  V30 26 H -1.956651 -3.363406 -1.005054 0
M  V30 27 H 2.744807 -5.084955 -0.088891 0
M  V30 28 H 3.588397 -2.501632 1.452255 0
M  V30 29 H 2.960905 -1.194366 0.422653 0
M  V30 30 H 3.901571 -2.480670 -0.369292 0
M  V30 31 H -0.135024 1.359968 -2.556872 0
M  V30 32 H -0.684541 3.736303 -2.235933 0
M  V30 33 H -1.068569 4.615329 0.047018 0
M  V30 34 H -1.187120 4.280631 2.348855 0
M  V30 35 H -0.497336 0.484429 4.087874 0
M  V30 END ATOM
M  V30 BEGIN BOND
M  V30 1 1 1 2
M  V30 2 2 2 3
M  V30 3 1 3 4
M  V30 4 1 4 5
M  V30 5 1 5 6
M  V30 6 2 5 7
M  V30 7 1 7 8
M  V30 8 1 8 9
M  V30 9 2 9 10
M  V30 10 1 9 11
M  V30 11 2 11 12
M  V30 12 1 12 13
M  V30 13 2 13 14
M  V30 14 1 14 15
M  V30 15 2 15 16
M  V30 16 1 16 17
M  V30 17 1 17 18
M  V30 18 2 17 19
M  V30 19 1 19 20
M  V30 20 2 20 21
M  V30 21 1 20 22
M  V30 22 2 22 23
M  V30 23 1 7 2
M  V30 24 1 22 8
M  V30 25 1 21 11
M  V30 26 1 21 15
M  V30 27 1 1 24
M  V30 28 1 1 25
M  V30 29 1 1 26
M  V30 30 1 4 27
M  V30 31 1 6 28
M  V30 32 1 6 29
M  V30 33 1 6 30
M  V30 34 1 12 31
M  V30 35 1 13 32
M  V30 36 1 14 33
M  V30 37 1 16 34
M  V30 38 1 19 35
M  V30 END BOND
M  V30 END CTAB
M  END
>  <Dataset>  (746) 
ChEMBL_Kinases

>  <Ligand_Instance>  (746) 
nan

>  <PDB_ID>  (746) 
nan

>  <Standardized_SMILES>  (746) 
Cc1n[nH]c(C)c1N1C(=O)c2cccc3cc(Br)cc(c23)C1=O

>  <Name>  (746) 
nan

>  <Pocket>  (746) 
nan

>  <ATP_Site>  (746) 
nan

>  <Peripheral>  (746) 
nan

>  <Num_H_Atoms_ProtBoundConf>  (746) 
nan

>  <Num_Resolved_Atoms>  (746) 
nan

>  <Num_Not_Resolved_Atoms>  (746) 
nan

$$$$
CHEMBL1431517
     RDKit          3D

  0  0  0  0  0  0  0  0  0  0999 V3000
M  V30 BEGIN CTAB
M  V30 COUNTS 27 27 0 0 0
M  V30 BEGIN ATOM
M  V30 1 C 0.231852 -4.107751 4.687035 0
M  V30 2 O 0.100958 -3.052695 3.748507 0
M  V30 3 C 1.111707 -2.551970 2.974876 0
M  V30 4 O 2.254034 -3.064801 3.101069 0
M  V30 5 C 0.899981 -1.462089 2.028778 0
M  V30 6 C 1.951298 -0.990724 1.269943 0
M  V30 7 F 3.200926 -1.497181 1.357374 0
M  V30 8 C 1.786824 0.039473 0.364756 0
M  V30 9 F 2.723419 0.582130 -0.425101 0
M  V30 10 C 0.530308 0.599314 0.229932 0
M  V30 11 N 0.121134 1.668785 -0.636856 0
M  V30 12 C -0.314105 1.102162 -1.905859 0
M  V30 13 C -0.766652 2.157593 -2.890704 0
M  V30 14 O -1.155978 1.511960 -4.054044 0
M  V30 15 C -0.544308 0.129068 0.994863 0
M  V30 16 F -1.808008 0.604548 0.940495 0
M  V30 17 C -0.359912 -0.908023 1.900346 0
M  V30 18 F -1.367309 -1.399575 2.664467 0
M  V30 19 H 0.640094 -5.036463 4.212377 0
M  V30 20 H 0.860826 -3.835825 5.561642 0
M  V30 21 H -0.824520 -4.349640 5.005220 0
M  V30 22 H 0.224892 2.592690 -0.173727 0
M  V30 23 H 0.496049 0.509824 -2.381213 0
M  V30 24 H -1.176955 0.430305 -1.722440 0
M  V30 25 H -1.575732 2.752192 -2.426045 0
M  V30 26 H 0.104065 2.814797 -3.131467 0
M  V30 27 H -1.499228 0.617534 -3.815991 0
M  V30 END ATOM
M  V30 BEGIN BOND
M  V30 1 1 1 2
M  V30 2 1 2 3
M  V30 3 2 3 4
M  V30 4 1 3 5
M  V30 5 2 5 6
M  V30 6 1 6 7
M  V30 7 1 6 8
M  V30 8 1 8 9
M  V30 9 2 8 10
M  V30 10 1 10 11
M  V30 11 1 11 12
M  V30 12 1 12 13
M  V30 13 1 13 14
M  V30 14 1 10 15
M  V30 15 1 15 16
M  V30 16 2 15 17
M  V30 17 1 17 18
M  V30 18 1 17 5
M  V30 19 1 1 19
M  V30 20 1 1 20
M  V30 21 1 1 21
M  V30 22 1 11 22
M  V30 23 1 12 23
M  V30 24 1 12 24
M  V30 25 1 13 25
M  V30 26 1 13 26
M  V30 27 1 14 27
M  V30 END BOND
M  V30 END CTAB
M  END
>  <Dataset>  (747) 
ChEMBL_Kinases

>  <Ligand_Instance>  (747) 
nan

>  <PDB_ID>  (747) 
nan

>  <Standardized_SMILES>  (747) 
COC(=O)c1c(F)c(F)c(NCCO)c(F)c1F

>  <Name>  (747) 
nan

>  <Pocket>  (747) 
nan

>  <ATP_Site>  (747) 
nan

>  <Peripheral>  (747) 
nan

>  <Num_H_Atoms_ProtBoundConf>  (747) 
nan

>  <Num_Resolved_Atoms>  (747) 
nan

>  <Num_Not_Resolved_Atoms>  (747) 
nan

$$$$
CHEMBL1431255
     RDKit          3D

  0  0  0  0  0  0  0  0  0  0999 V3000
M  V30 BEGIN CTAB
M  V30 COUNTS 46 48 0 0 0
M  V30 BEGIN ATOM
M  V30 1 O 1.124602 1.017723 2.123149 0
M  V30 2 C 0.654950 0.466683 1.096936 0
M  V30 3 C 1.549944 0.005778 0.047054 0
M  V30 4 C 2.839122 0.202753 0.248359 0
M  V30 5 C 3.840903 -0.210385 -0.722246 0
M  V30 6 C 3.567456 -0.832505 -1.920156 0
M  V30 7 C 4.501550 -1.230634 -2.850890 0
M  V30 8 C 5.832915 -0.995745 -2.580342 0
M  V30 9 Cl 7.071482 -1.476329 -3.720301 0
M  V30 10 C 6.164160 -0.375255 -1.394221 0
M  V30 11 C 5.185956 0.001336 -0.499839 0
M  V30 12 Cl 5.722185 0.777612 0.966085 0
M  V30 13 N -0.739257 0.430321 1.231748 0
M  V30 14 C -1.256147 1.004500 2.485524 0
M  V30 15 C -1.431448 0.002501 3.545819 0
M  V30 16 C -0.566364 -0.396463 4.516400 0
M  V30 17 C -0.797702 -1.344386 5.473666 0
M  V30 18 C -2.016757 -1.983477 5.492362 0
M  V30 19 C -2.947015 -1.628318 4.534263 0
M  V30 20 C -2.651811 -0.655529 3.585842 0
M  V30 21 C -1.696354 -0.081183 0.328771 0
M  V30 22 C -1.707298 0.471180 -1.054622 0
M  V30 23 C -3.046185 -0.042521 -1.610482 0
M  V30 24 S -3.067218 -1.714410 -0.944753 0
M  V30 25 O -4.220156 -1.949171 -0.046021 0
M  V30 26 O -2.888318 -2.728556 -2.017235 0
M  V30 27 C -1.597317 -1.594746 0.091290 0
M  V30 28 H 1.179884 -0.470252 -0.846898 0
M  V30 29 H 3.198602 0.681187 1.147504 0
M  V30 30 H 2.550829 -1.046782 -2.196247 0
M  V30 31 H 4.230181 -1.716318 -3.777542 0
M  V30 32 H 7.213092 -0.204709 -1.209951 0
M  V30 33 H -2.233411 1.498162 2.308198 0
M  V30 34 H -0.583418 1.826247 2.822088 0
M  V30 35 H 0.402215 0.079092 4.546633 0
M  V30 36 H -0.046573 -1.595622 6.206328 0
M  V30 37 H -2.201049 -2.725207 6.239419 0
M  V30 38 H -3.877345 -2.171079 4.612151 0
M  V30 39 H -3.500899 -0.515558 2.925627 0
M  V30 40 H -2.749271 0.041744 0.726379 0
M  V30 41 H -1.772427 1.571801 -1.039217 0
M  V30 42 H -0.959151 0.070076 -1.746123 0
M  V30 43 H -3.872688 0.481003 -1.109851 0
M  V30 44 H -3.068369 -0.030325 -2.705350 0
M  V30 45 H -0.712119 -1.867835 -0.480335 0
M  V30 46 H -1.735666 -2.092867 1.058926 0
M  V30 END ATOM
M  V30 BEGIN BOND
M  V30 1 2 1 2
M  V30 2 1 2 3
M  V30 3 2 3 4
M  V30 4 1 4 5
M  V30 5 2 5 6
M  V30 6 1 6 7
M  V30 7 2 7 8
M  V30 8 1 8 9
M  V30 9 1 8 10
M  V30 10 2 10 11
M  V30 11 1 11 12
M  V30 12 1 2 13
M  V30 13 1 13 14
M  V30 14 1 14 15
M  V30 15 2 15 16
M  V30 16 1 16 17
M  V30 17 2 17 18
M  V30 18 1 18 19
M  V30 19 2 19 20
M  V30 20 1 13 21
M  V30 21 1 21 22
M  V30 22 1 22 23
M  V30 23 1 23 24
M  V30 24 2 24 25
M  V30 25 2 24 26
M  V30 26 1 24 27
M  V30 27 1 11 5
M  V30 28 1 20 15
M  V30 29 1 27 21
M  V30 30 1 3 28
M  V30 31 1 4 29
M  V30 32 1 6 30
M  V30 33 1 7 31
M  V30 34 1 10 32
M  V30 35 1 14 33
M  V30 36 1 14 34
M  V30 37 1 16 35
M  V30 38 1 17 36
M  V30 39 1 18 37
M  V30 40 1 19 38
M  V30 41 1 20 39
M  V30 42 1 21 40
M  V30 43 1 22 41
M  V30 44 1 22 42
M  V30 45 1 23 43
M  V30 46 1 23 44
M  V30 47 1 27 45
M  V30 48 1 27 46
M  V30 END BOND
M  V30 END CTAB
M  END
>  <Dataset>  (748) 
ChEMBL_Kinases

>  <Ligand_Instance>  (748) 
nan

>  <PDB_ID>  (748) 
nan

>  <Standardized_SMILES>  (748) 
O=C(/C=C/c1ccc(Cl)cc1Cl)N(Cc1ccccc1)C1CCS(=O)(=O)C1

>  <Name>  (748) 
nan

>  <Pocket>  (748) 
nan

>  <ATP_Site>  (748) 
nan

>  <Peripheral>  (748) 
nan

>  <Num_H_Atoms_ProtBoundConf>  (748) 
nan

>  <Num_Resolved_Atoms>  (748) 
nan

>  <Num_Not_Resolved_Atoms>  (748) 
nan

$$$$
CHEMBL1431188
     RDKit          3D

  0  0  0  0  0  0  0  0  0  0999 V3000
M  V30 BEGIN CTAB
M  V30 COUNTS 53 55 0 0 0
M  V30 BEGIN ATOM
M  V30 1 C 3.505720 -4.533349 5.346121 0
M  V30 2 C 2.262200 -3.810526 4.895246 0
M  V30 3 C 2.566176 -2.450780 4.273133 0
M  V30 4 C 3.455126 -2.640210 3.075826 0
M  V30 5 C 3.806045 -1.316350 2.388381 0
M  V30 6 C 2.561989 -0.613302 1.893615 0
M  V30 7 N 2.836317 0.653512 1.244785 0
M  V30 8 C 1.598108 1.234557 0.779391 0
M  V30 9 C 0.616038 0.545398 0.065625 0
M  V30 10 C -0.522281 1.206735 -0.294684 0
M  V30 11 N -0.744903 2.494557 0.006171 0
M  V30 12 C 0.226594 3.148027 0.703372 0
M  V30 13 O 0.183202 4.363678 1.070733 0
M  V30 14 N 1.371295 2.526213 1.078946 0
M  V30 15 C -1.850191 3.361531 -0.278833 0
M  V30 16 C -2.993730 2.717763 -0.987622 0
M  V30 17 C -2.668345 1.318467 -1.319455 0
M  V30 18 C -3.684811 0.697482 -2.053223 0
M  V30 19 C -3.634747 -0.619542 -2.483212 0
M  V30 20 O -4.651297 -1.218591 -3.210094 0
M  V30 21 C -5.801036 -0.501250 -3.552060 0
M  V30 22 C -2.498929 -1.352645 -2.156225 0
M  V30 23 O -2.427915 -2.681239 -2.580305 0
M  V30 24 C -1.299085 -3.467858 -2.279269 0
M  V30 25 C -1.476055 -0.764902 -1.430405 0
M  V30 26 C -1.567662 0.546261 -1.024517 0
M  V30 27 H 3.759295 -5.281630 4.537611 0
M  V30 28 H 4.360207 -3.874544 5.558155 0
M  V30 29 H 3.332082 -5.158455 6.267756 0
M  V30 30 H 1.593736 -3.708729 5.774145 0
M  V30 31 H 1.669497 -4.392607 4.148056 0
M  V30 32 H 2.993505 -1.770995 5.018590 0
M  V30 33 H 1.575010 -2.043033 3.979559 0
M  V30 34 H 2.956772 -3.330408 2.362710 0
M  V30 35 H 4.403532 -3.098089 3.395618 0
M  V30 36 H 4.477147 -1.599223 1.553405 0
M  V30 37 H 4.362601 -0.701011 3.094303 0
M  V30 38 H 2.031937 -1.274067 1.181186 0
M  V30 39 H 1.866264 -0.463176 2.758951 0
M  V30 40 H 3.686744 1.224569 1.041005 0
M  V30 41 H 0.790640 -0.464512 -0.172535 0
M  V30 42 H -1.492691 4.212034 -0.922103 0
M  V30 43 H -2.238501 3.823267 0.672213 0
M  V30 44 H -3.907482 2.759535 -0.335712 0
M  V30 45 H -3.278680 3.251905 -1.924027 0
M  V30 46 H -4.605308 1.188096 -2.354470 0
M  V30 47 H -6.586191 -1.142916 -3.980007 0
M  V30 48 H -6.232433 -0.006924 -2.649334 0
M  V30 49 H -5.515821 0.312314 -4.259439 0
M  V30 50 H -0.402975 -2.946093 -2.717229 0
M  V30 51 H -1.185375 -3.546282 -1.188088 0
M  V30 52 H -1.369019 -4.462731 -2.739952 0
M  V30 53 H -0.626251 -1.363915 -1.204204 0
M  V30 END ATOM
M  V30 BEGIN BOND
M  V30 1 1 1 2
M  V30 2 1 2 3
M  V30 3 1 3 4
M  V30 4 1 4 5
M  V30 5 1 5 6
M  V30 6 1 6 7
M  V30 7 1 7 8
M  V30 8 1 8 9
M  V30 9 2 9 10
M  V30 10 1 10 11
M  V30 11 1 11 12
M  V30 12 2 12 13
M  V30 13 1 12 14
M  V30 14 1 11 15
M  V30 15 1 15 16
M  V30 16 1 16 17
M  V30 17 2 17 18
M  V30 18 1 18 19
M  V30 19 1 19 20
M  V30 20 1 20 21
M  V30 21 2 19 22
M  V30 22 1 22 23
M  V30 23 1 23 24
M  V30 24 1 22 25
M  V30 25 2 25 26
M  V30 26 2 14 8
M  V30 27 1 26 17
M  V30 28 1 26 10
M  V30 29 1 1 27
M  V30 30 1 1 28
M  V30 31 1 1 29
M  V30 32 1 2 30
M  V30 33 1 2 31
M  V30 34 1 3 32
M  V30 35 1 3 33
M  V30 36 1 4 34
M  V30 37 1 4 35
M  V30 38 1 5 36
M  V30 39 1 5 37
M  V30 40 1 6 38
M  V30 41 1 6 39
M  V30 42 1 7 40
M  V30 43 1 9 41
M  V30 44 1 15 42
M  V30 45 1 15 43
M  V30 46 1 16 44
M  V30 47 1 16 45
M  V30 48 1 18 46
M  V30 49 1 21 47
M  V30 50 1 21 48
M  V30 51 1 21 49
M  V30 52 1 24 50
M  V30 53 1 24 51
M  V30 54 1 24 52
M  V30 55 1 25 53
M  V30 END BOND
M  V30 END CTAB
M  END
>  <Dataset>  (749) 
ChEMBL_Kinases

>  <Ligand_Instance>  (749) 
nan

>  <PDB_ID>  (749) 
nan

>  <Standardized_SMILES>  (749) 
CCCCCCNc1cc2n(c(=O)n1)CCc1cc(OC)c(OC)cc1-2

>  <Name>  (749) 
nan

>  <Pocket>  (749) 
nan

>  <ATP_Site>  (749) 
nan

>  <Peripheral>  (749) 
nan

>  <Num_H_Atoms_ProtBoundConf>  (749) 
nan

>  <Num_Resolved_Atoms>  (749) 
nan

>  <Num_Not_Resolved_Atoms>  (749) 
nan

$$$$
CHEMBL1431103
     RDKit          3D

  0  0  0  0  0  0  0  0  0  0999 V3000
M  V30 BEGIN CTAB
M  V30 COUNTS 49 51 0 0 0
M  V30 BEGIN ATOM
M  V30 1 O -0.933226 -2.732034 1.807991 0
M  V30 2 C -0.012585 -2.063994 1.230498 0
M  V30 3 C 0.323072 -2.961134 0.122784 0
M  V30 4 C -0.538206 -4.193955 0.202258 0
M  V30 5 C 0.165614 -5.056818 1.197326 0
M  V30 6 C 1.579132 -4.528144 1.345341 0
M  V30 7 C 1.731565 -3.537415 0.210327 0
M  V30 8 N 0.458805 -0.796804 1.663815 0
M  V30 9 C 1.487009 -0.146954 0.932624 0
M  V30 10 C 1.430175 1.326440 1.116847 0
M  V30 11 C 0.110308 1.872611 1.593668 0
M  V30 12 C 0.500471 3.313362 2.094017 0
M  V30 13 O 1.025381 3.964464 0.979595 0
M  V30 14 C -0.851631 2.140688 0.497063 0
M  V30 15 C -1.276380 1.059507 -0.367542 0
M  V30 16 C -0.563775 0.988616 -1.576430 0
M  V30 17 C -0.760491 0.044879 -2.553470 0
M  V30 18 C -1.722892 -0.923765 -2.368662 0
M  V30 19 C -2.459205 -0.912755 -1.205581 0
M  V30 20 C -2.208482 0.063587 -0.270322 0
M  V30 21 Cl -3.178507 0.106754 1.182932 0
M  V30 22 C -0.374447 1.196579 2.818831 0
M  V30 23 C -0.171703 -0.277990 2.856281 0
M  V30 24 H 0.184498 -2.515458 -0.891769 0
M  V30 25 H -1.591241 -3.978160 0.489498 0
M  V30 26 H -0.577501 -4.730666 -0.784302 0
M  V30 27 H 0.172273 -6.137352 0.935759 0
M  V30 28 H -0.327492 -4.951538 2.184530 0
M  V30 29 H 1.738149 -3.955099 2.274922 0
M  V30 30 H 2.298603 -5.340677 1.219676 0
M  V30 31 H 1.930458 -4.046504 -0.751660 0
M  V30 32 H 2.431921 -2.730161 0.437788 0
M  V30 33 H 2.496119 -0.494067 1.288852 0
M  V30 34 H 1.496028 -0.407797 -0.151412 0
M  V30 35 H 1.707655 1.893683 0.196380 0
M  V30 36 H 2.175155 1.619249 1.919076 0
M  V30 37 H -0.419361 3.806194 2.435409 0
M  V30 38 H 1.281702 3.251446 2.852313 0
M  V30 39 H 0.961616 4.942655 1.053876 0
M  V30 40 H -1.809361 2.610090 0.903361 0
M  V30 41 H -0.421147 3.014988 -0.086133 0
M  V30 42 H 0.231552 1.703245 -1.845463 0
M  V30 43 H -0.202331 0.007161 -3.475827 0
M  V30 44 H -1.961214 -1.706805 -3.060914 0
M  V30 45 H -3.226288 -1.637367 -0.993770 0
M  V30 46 H 0.242360 1.619038 3.680249 0
M  V30 47 H -1.401018 1.440593 3.094117 0
M  V30 48 H 0.532076 -0.533720 3.689754 0
M  V30 49 H -1.110314 -0.796147 3.121099 0
M  V30 END ATOM
M  V30 BEGIN BOND
M  V30 1 2 1 2
M  V30 2 1 2 3
M  V30 3 1 3 4
M  V30 4 1 4 5
M  V30 5 1 5 6
M  V30 6 1 6 7
M  V30 7 1 2 8
M  V30 8 1 8 9
M  V30 9 1 9 10
M  V30 10 1 10 11
M  V30 11 1 11 12
M  V30 12 1 12 13
M  V30 13 1 11 14
M  V30 14 1 14 15
M  V30 15 2 15 16
M  V30 16 1 16 17
M  V30 17 2 17 18
M  V30 18 1 18 19
M  V30 19 2 19 20
M  V30 20 1 20 21
M  V30 21 1 11 22
M  V30 22 1 22 23
M  V30 23 1 7 3
M  V30 24 1 23 8
M  V30 25 1 20 15
M  V30 26 1 3 24
M  V30 27 1 4 25
M  V30 28 1 4 26
M  V30 29 1 5 27
M  V30 30 1 5 28
M  V30 31 1 6 29
M  V30 32 1 6 30
M  V30 33 1 7 31
M  V30 34 1 7 32
M  V30 35 1 9 33
M  V30 36 1 9 34
M  V30 37 1 10 35
M  V30 38 1 10 36
M  V30 39 1 12 37
M  V30 40 1 12 38
M  V30 41 1 13 39
M  V30 42 1 14 40
M  V30 43 1 14 41
M  V30 44 1 16 42
M  V30 45 1 17 43
M  V30 46 1 18 44
M  V30 47 1 19 45
M  V30 48 1 22 46
M  V30 49 1 22 47
M  V30 50 1 23 48
M  V30 51 1 23 49
M  V30 END BOND
M  V30 END CTAB
M  END
>  <Dataset>  (750) 
ChEMBL_Kinases

>  <Ligand_Instance>  (750) 
nan

>  <PDB_ID>  (750) 
nan

>  <Standardized_SMILES>  (750) 
O=C(C1CCCC1)N1CCC(CO)(Cc2ccccc2Cl)CC1

>  <Name>  (750) 
nan

>  <Pocket>  (750) 
nan

>  <ATP_Site>  (750) 
nan

>  <Peripheral>  (750) 
nan

>  <Num_H_Atoms_ProtBoundConf>  (750) 
nan

>  <Num_Resolved_Atoms>  (750) 
nan

>  <Num_Not_Resolved_Atoms>  (750) 
nan

$$$$
CHEMBL1436024
     RDKit          3D

  0  0  0  0  0  0  0  0  0  0999 V3000
M  V30 BEGIN CTAB
M  V30 COUNTS 39 41 0 0 0
M  V30 BEGIN ATOM
M  V30 1 C -1.207171 -4.686773 4.305442 0
M  V30 2 O 0.125916 -4.817283 3.846074 0
M  V30 3 C 0.525130 -3.972318 2.818642 0
M  V30 4 C 1.834763 -4.071174 2.337814 0
M  V30 5 C 2.253560 -3.227018 1.302513 0
M  V30 6 C 1.370073 -2.310175 0.771125 0
M  V30 7 C 0.075393 -2.193634 1.227525 0
M  V30 8 C -0.907794 -1.246694 0.709996 0
M  V30 9 C -0.645440 -0.352495 -0.306393 0
M  V30 10 C -1.549391 0.550443 -0.814769 0
M  V30 11 N -1.219253 1.450625 -1.867288 0
M  V30 12 C -0.677268 2.752129 -1.502809 0
M  V30 13 C 0.584809 2.605105 -0.738193 0
M  V30 14 C 0.731878 2.496747 0.633409 0
M  V30 15 C 1.974695 2.365290 1.198991 0
M  V30 16 C 3.081675 2.340910 0.399398 0
M  V30 17 C 3.008242 2.443684 -0.969721 0
M  V30 18 C 1.748255 2.574786 -1.512603 0
M  V30 19 N -2.790608 0.570023 -0.284473 0
M  V30 20 C -3.070837 -0.299548 0.715043 0
M  V30 21 N -2.173056 -1.175873 1.199359 0
M  V30 22 C -0.326603 -3.029459 2.246995 0
M  V30 23 H -1.919999 -4.757573 3.453270 0
M  V30 24 H -1.311847 -3.652673 4.694549 0
M  V30 25 H -1.467438 -5.385277 5.106499 0
M  V30 26 H 2.546623 -4.799095 2.755091 0
M  V30 27 H 3.263857 -3.316693 0.945090 0
M  V30 28 H 1.692297 -1.657569 -0.028576 0
M  V30 29 H 0.332026 -0.332776 -0.759373 0
M  V30 30 H -1.404306 1.077370 -2.835913 0
M  V30 31 H -1.455912 3.203646 -0.825679 0
M  V30 32 H -0.509798 3.395697 -2.370248 0
M  V30 33 H -0.214033 2.528630 1.161324 0
M  V30 34 H 2.017300 2.285973 2.270117 0
M  V30 35 H 4.067206 2.236450 0.850925 0
M  V30 36 H 3.892306 2.425009 -1.619579 0
M  V30 37 H 1.708491 2.655084 -2.600656 0
M  V30 38 H -4.050746 -0.349287 1.199334 0
M  V30 39 H -1.346031 -2.965018 2.633861 0
M  V30 END ATOM
M  V30 BEGIN BOND
M  V30 1 1 1 2
M  V30 2 1 2 3
M  V30 3 2 3 4
M  V30 4 1 4 5
M  V30 5 2 5 6
M  V30 6 1 6 7
M  V30 7 1 7 8
M  V30 8 2 8 9
M  V30 9 1 9 10
M  V30 10 1 10 11
M  V30 11 1 11 12
M  V30 12 1 12 13
M  V30 13 2 13 14
M  V30 14 1 14 15
M  V30 15 2 15 16
M  V30 16 1 16 17
M  V30 17 2 17 18
M  V30 18 2 10 19
M  V30 19 1 19 20
M  V30 20 2 20 21
M  V30 21 2 7 22
M  V30 22 1 22 3
M  V30 23 1 21 8
M  V30 24 1 18 13
M  V30 25 1 1 23
M  V30 26 1 1 24
M  V30 27 1 1 25
M  V30 28 1 4 26
M  V30 29 1 5 27
M  V30 30 1 6 28
M  V30 31 1 9 29
M  V30 32 1 11 30
M  V30 33 1 12 31
M  V30 34 1 12 32
M  V30 35 1 14 33
M  V30 36 1 15 34
M  V30 37 1 16 35
M  V30 38 1 17 36
M  V30 39 1 18 37
M  V30 40 1 20 38
M  V30 41 1 22 39
M  V30 END BOND
M  V30 END CTAB
M  END
>  <Dataset>  (751) 
ChEMBL_Kinases

>  <Ligand_Instance>  (751) 
nan

>  <PDB_ID>  (751) 
nan

>  <Standardized_SMILES>  (751) 
COc1cccc(-c2cc(NCc3ccccc3)ncn2)c1

>  <Name>  (751) 
nan

>  <Pocket>  (751) 
nan

>  <ATP_Site>  (751) 
nan

>  <Peripheral>  (751) 
nan

>  <Num_H_Atoms_ProtBoundConf>  (751) 
nan

>  <Num_Resolved_Atoms>  (751) 
nan

>  <Num_Not_Resolved_Atoms>  (751) 
nan

$$$$
CHEMBL1429429
     RDKit          3D

  0  0  0  0  0  0  0  0  0  0999 V3000
M  V30 BEGIN CTAB
M  V30 COUNTS 42 44 0 0 0
M  V30 BEGIN ATOM
M  V30 1 C 2.975136 -3.929860 1.377366 0
M  V30 2 C 3.061373 -2.933678 0.262103 0
M  V30 3 N 2.142789 -1.821828 0.388720 0
M  V30 4 C 2.206148 -0.932480 -0.645522 0
M  V30 5 C 1.249226 0.144591 -0.858683 0
M  V30 6 C 0.170731 -0.255165 -1.670937 0
M  V30 7 C -0.858495 0.572979 -2.046928 0
M  V30 8 N -0.890093 1.856398 -1.642621 0
M  V30 9 C 0.107250 2.285531 -0.871597 0
M  V30 10 C 1.126960 1.470588 -0.497878 0
M  V30 11 C 1.255483 -1.958520 1.440383 0
M  V30 12 C 0.445739 -0.768570 1.786990 0
M  V30 13 C 1.229865 0.162504 2.476452 0
M  V30 14 O 2.567968 0.125696 2.838698 0
M  V30 15 C 0.656963 1.363629 2.915904 0
M  V30 16 C -0.679200 1.635156 2.672391 0
M  V30 17 C -1.415386 0.694412 1.992987 0
M  V30 18 C -2.752358 0.820023 1.690724 0
M  V30 19 C -3.552012 -0.078583 1.027722 0
M  V30 20 Br -5.396893 0.247124 0.686464 0
M  V30 21 C -2.902230 -1.254853 0.621576 0
M  V30 22 C -1.558476 -1.486521 0.872582 0
M  V30 23 C -0.866108 -0.511895 1.544071 0
M  V30 24 H 3.409501 -3.521844 2.306216 0
M  V30 25 H 3.632175 -4.786459 1.104174 0
M  V30 26 H 1.956057 -4.356473 1.496883 0
M  V30 27 H 4.099425 -2.507657 0.278601 0
M  V30 28 H 2.925583 -3.434138 -0.723014 0
M  V30 29 H 3.219997 -0.400379 -0.583576 0
M  V30 30 H 2.368840 -1.474593 -1.663509 0
M  V30 31 H 0.043299 -1.264804 -2.084256 0
M  V30 32 H -1.688375 0.271377 -2.669414 0
M  V30 33 H 0.202919 3.305901 -0.474084 0
M  V30 34 H 1.996594 1.722582 0.135174 0
M  V30 35 H 0.599033 -2.867485 1.308735 0
M  V30 36 H 1.821673 -2.277837 2.402458 0
M  V30 37 H 2.890601 0.315143 3.778461 0
M  V30 38 H 1.155999 2.172481 3.460816 0
M  V30 39 H -1.193293 2.516881 2.967879 0
M  V30 40 H -3.277841 1.733610 1.998399 0
M  V30 41 H -3.497017 -1.987010 0.097079 0
M  V30 42 H -1.124662 -2.398523 0.533725 0
M  V30 END ATOM
M  V30 BEGIN BOND
M  V30 1 1 1 2
M  V30 2 1 2 3
M  V30 3 1 3 4
M  V30 4 1 4 5
M  V30 5 2 5 6
M  V30 6 1 6 7
M  V30 7 2 7 8
M  V30 8 1 8 9
M  V30 9 2 9 10
M  V30 10 1 3 11
M  V30 11 1 11 12
M  V30 12 2 12 13
M  V30 13 1 13 14
M  V30 14 1 13 15
M  V30 15 2 15 16
M  V30 16 1 16 17
M  V30 17 2 17 18
M  V30 18 1 18 19
M  V30 19 1 19 20
M  V30 20 2 19 21
M  V30 21 1 21 22
M  V30 22 2 22 23
M  V30 23 1 10 5
M  V30 24 1 23 12
M  V30 25 1 23 17
M  V30 26 1 1 24
M  V30 27 1 1 25
M  V30 28 1 1 26
M  V30 29 1 2 27
M  V30 30 1 2 28
M  V30 31 1 4 29
M  V30 32 1 4 30
M  V30 33 1 6 31
M  V30 34 1 7 32
M  V30 35 1 9 33
M  V30 36 1 10 34
M  V30 37 1 11 35
M  V30 38 1 11 36
M  V30 39 1 14 37
M  V30 40 1 15 38
M  V30 41 1 16 39
M  V30 42 1 18 40
M  V30 43 1 21 41
M  V30 44 1 22 42
M  V30 END BOND
M  V30 END CTAB
M  END
>  <Dataset>  (752) 
ChEMBL_Kinases

>  <Ligand_Instance>  (752) 
nan

>  <PDB_ID>  (752) 
nan

>  <Standardized_SMILES>  (752) 
CCN(Cc1ccncc1)Cc1c(O)ccc2cc(Br)ccc12

>  <Name>  (752) 
nan

>  <Pocket>  (752) 
nan

>  <ATP_Site>  (752) 
nan

>  <Peripheral>  (752) 
nan

>  <Num_H_Atoms_ProtBoundConf>  (752) 
nan

>  <Num_Resolved_Atoms>  (752) 
nan

>  <Num_Not_Resolved_Atoms>  (752) 
nan

$$$$
CHEMBL1429637
     RDKit          3D

  0  0  0  0  0  0  0  0  0  0999 V3000
M  V30 BEGIN CTAB
M  V30 COUNTS 55 57 0 0 0
M  V30 BEGIN ATOM
M  V30 1 C 1.536526 -4.157544 4.018762 0
M  V30 2 N 1.984548 -4.167028 2.641158 0
M  V30 3 C 2.291019 -5.393241 1.922892 0
M  V30 4 C 2.121915 -2.910050 1.987308 0
M  V30 5 C 1.830796 -1.753346 2.671083 0
M  V30 6 C 1.960303 -0.509664 2.043909 0
M  V30 7 C 2.384986 -0.428872 0.721607 0
M  V30 8 N 2.458049 0.904167 0.251774 0
M  V30 9 N 2.174588 1.151679 -0.960357 0
M  V30 10 C 2.278045 2.526898 -1.338696 0
M  V30 11 C 3.408738 3.222763 -1.711313 0
M  V30 12 C 3.305246 4.558598 -2.044542 0
M  V30 13 C 2.101645 5.237695 -2.020564 0
M  V30 14 C 0.991501 4.517232 -1.644944 0
M  V30 15 C 1.043404 3.179205 -1.302471 0
M  V30 16 C -0.227441 2.538169 -0.920705 0
M  V30 17 O -1.337980 3.126072 -0.888437 0
M  V30 18 O -0.173222 1.202010 -0.579107 0
M  V30 19 C -1.241569 0.399844 -0.189069 0
M  V30 20 C -2.306701 0.293478 -1.217562 0
M  V30 21 O -2.314547 0.850513 -2.365261 0
M  V30 22 N -3.423673 -0.529942 -0.841113 0
M  V30 23 C -4.536554 -0.716933 -1.760840 0
M  V30 24 C -3.562477 -1.216166 0.399205 0
M  V30 25 C -3.014572 -2.487678 0.310174 0
M  V30 26 C -3.035154 -3.349566 1.412084 0
M  V30 27 C -3.615472 -2.913001 2.605580 0
M  V30 28 C -4.151685 -1.639894 2.658014 0
M  V30 29 C -4.135647 -0.785269 1.578343 0
M  V30 30 C 2.674296 -1.584647 0.043231 0
M  V30 31 C 2.546033 -2.821616 0.665341 0
M  V30 32 H 2.198450 -3.531470 4.627614 0
M  V30 33 H 1.463193 -5.170251 4.447600 0
M  V30 34 H 0.517587 -3.715777 4.120565 0
M  V30 35 H 3.361995 -5.494965 1.742285 0
M  V30 36 H 1.801963 -5.283417 0.910862 0
M  V30 37 H 1.827335 -6.276749 2.404771 0
M  V30 38 H 1.499706 -1.802058 3.699352 0
M  V30 39 H 1.706594 0.354990 2.666157 0
M  V30 40 H 4.311214 2.633966 -1.708408 0
M  V30 41 H 4.218544 5.069872 -2.332180 0
M  V30 42 H 2.046376 6.286590 -2.286581 0
M  V30 43 H 0.055821 5.058669 -1.629848 0
M  V30 44 H -0.821209 -0.644875 -0.097457 0
M  V30 45 H -1.625892 0.625464 0.815147 0
M  V30 46 H -5.485356 -0.705097 -1.208090 0
M  V30 47 H -4.411454 -1.726751 -2.229437 0
M  V30 48 H -4.558151 0.066736 -2.549816 0
M  V30 49 H -2.537287 -2.950566 -0.546023 0
M  V30 50 H -2.623350 -4.354940 1.405210 0
M  V30 51 H -3.653997 -3.556812 3.497331 0
M  V30 52 H -4.620001 -1.246091 3.571056 0
M  V30 53 H -4.520430 0.209062 1.518444 0
M  V30 54 H 2.996444 -1.440835 -0.974974 0
M  V30 55 H 2.782041 -3.689495 0.098186 0
M  V30 END ATOM
M  V30 BEGIN BOND
M  V30 1 1 1 2
M  V30 2 1 2 3
M  V30 3 1 2 4
M  V30 4 2 4 5
M  V30 5 1 5 6
M  V30 6 2 6 7
M  V30 7 1 7 8
M  V30 8 2 8 9 CFG=2
M  V30 9 1 9 10
M  V30 10 2 10 11
M  V30 11 1 11 12
M  V30 12 2 12 13
M  V30 13 1 13 14
M  V30 14 2 14 15
M  V30 15 1 15 16
M  V30 16 2 16 17
M  V30 17 1 16 18
M  V30 18 1 18 19
M  V30 19 1 19 20
M  V30 20 2 20 21
M  V30 21 1 20 22
M  V30 22 1 22 23
M  V30 23 1 22 24
M  V30 24 2 24 25
M  V30 25 1 25 26
M  V30 26 2 26 27
M  V30 27 1 27 28
M  V30 28 2 28 29
M  V30 29 1 7 30
M  V30 30 2 30 31
M  V30 31 1 31 4
M  V30 32 1 15 10
M  V30 33 1 29 24
M  V30 34 1 1 32
M  V30 35 1 1 33
M  V30 36 1 1 34
M  V30 37 1 3 35
M  V30 38 1 3 36
M  V30 39 1 3 37
M  V30 40 1 5 38
M  V30 41 1 6 39
M  V30 42 1 11 40
M  V30 43 1 12 41
M  V30 44 1 13 42
M  V30 45 1 14 43
M  V30 46 1 19 44
M  V30 47 1 19 45
M  V30 48 1 23 46
M  V30 49 1 23 47
M  V30 50 1 23 48
M  V30 51 1 25 49
M  V30 52 1 26 50
M  V30 53 1 27 51
M  V30 54 1 28 52
M  V30 55 1 29 53
M  V30 56 1 30 54
M  V30 57 1 31 55
M  V30 END BOND
M  V30 END CTAB
M  END
>  <Dataset>  (753) 
ChEMBL_Kinases

>  <Ligand_Instance>  (753) 
nan

>  <PDB_ID>  (753) 
nan

>  <Standardized_SMILES>  (753) 
CN(C)c1ccc(N=Nc2ccccc2C(=O)OCC(=O)N(C)c2ccccc2)cc1

>  <Name>  (753) 
nan

>  <Pocket>  (753) 
nan

>  <ATP_Site>  (753) 
nan

>  <Peripheral>  (753) 
nan

>  <Num_H_Atoms_ProtBoundConf>  (753) 
nan

>  <Num_Resolved_Atoms>  (753) 
nan

>  <Num_Not_Resolved_Atoms>  (753) 
nan

$$$$
CHEMBL1429775
     RDKit          3D

  0  0  0  0  0  0  0  0  0  0999 V3000
M  V30 BEGIN CTAB
M  V30 COUNTS 45 48 0 0 0
M  V30 BEGIN ATOM
M  V30 1 O 0.731147 -0.914855 3.865009 0
M  V30 2 C 0.477178 -1.740013 2.936207 0
M  V30 3 C 1.706732 -2.536098 2.688558 0
M  V30 4 C 2.927854 -1.686953 2.431120 0
M  V30 5 N 2.782241 -0.881743 1.285807 0
M  V30 6 C 2.759235 -1.496610 0.031043 0
M  V30 7 C 2.050726 -0.762469 -1.066561 0
M  V30 8 C 2.368139 0.683792 -1.092258 0
M  V30 9 C 2.429913 1.407809 -2.242451 0
M  V30 10 C 2.729480 2.749923 -2.152733 0
M  V30 11 C 2.955054 3.323211 -0.935894 0
M  V30 12 C 2.900978 2.617105 0.261807 0
M  V30 13 C 2.596892 1.257586 0.155420 0
M  V30 14 C 2.532107 0.490124 1.425748 0
M  V30 15 C -0.810785 -1.843707 2.263483 0
M  V30 16 C -1.053742 -2.755295 1.261871 0
M  V30 17 C -2.278483 -2.820802 0.633431 0
M  V30 18 C -3.285092 -1.949246 1.020111 0
M  V30 19 C -3.006675 -1.034358 2.041905 0
M  V30 20 C -1.775353 -0.954875 2.687158 0
M  V30 21 O -4.098502 -0.233880 2.321103 0
M  V30 22 C -4.945404 0.267849 1.282121 0
M  V30 23 C -5.241968 -0.754258 0.232514 0
M  V30 24 O -4.530979 -1.962233 0.431564 0
M  V30 25 H 1.554430 -3.183878 1.802462 0
M  V30 26 H 1.903514 -3.244762 3.531066 0
M  V30 27 H 3.761851 -2.420665 2.276355 0
M  V30 28 H 3.216004 -1.093460 3.331764 0
M  V30 29 H 2.304097 -2.502746 0.090447 0
M  V30 30 H 3.821284 -1.704182 -0.297040 0
M  V30 31 H 0.954987 -0.932963 -1.029372 0
M  V30 32 H 2.407264 -1.186614 -2.028882 0
M  V30 33 H 2.230569 0.849566 -3.159264 0
M  V30 34 H 2.768284 3.284091 -3.089307 0
M  V30 35 H 3.185188 4.375749 -0.919983 0
M  V30 36 H 3.079365 3.079499 1.225837 0
M  V30 37 H 3.217584 0.938318 2.175875 0
M  V30 38 H 1.496786 0.653932 1.815305 0
M  V30 39 H -0.287094 -3.442010 0.946004 0
M  V30 40 H -2.453413 -3.551834 -0.161909 0
M  V30 41 H -1.668281 -0.216368 3.458111 0
M  V30 42 H -5.913019 0.588248 1.735437 0
M  V30 43 H -4.455688 1.173484 0.868877 0
M  V30 44 H -4.894532 -0.345227 -0.739967 0
M  V30 45 H -6.321039 -0.961187 0.122251 0
M  V30 END ATOM
M  V30 BEGIN BOND
M  V30 1 2 1 2
M  V30 2 1 2 3
M  V30 3 1 3 4
M  V30 4 1 4 5
M  V30 5 1 5 6
M  V30 6 1 6 7
M  V30 7 1 7 8
M  V30 8 2 8 9
M  V30 9 1 9 10
M  V30 10 2 10 11
M  V30 11 1 11 12
M  V30 12 2 12 13
M  V30 13 1 13 14
M  V30 14 1 2 15
M  V30 15 2 15 16
M  V30 16 1 16 17
M  V30 17 2 17 18
M  V30 18 1 18 19
M  V30 19 2 19 20
M  V30 20 1 19 21
M  V30 21 1 21 22
M  V30 22 1 22 23
M  V30 23 1 23 24
M  V30 24 1 14 5
M  V30 25 1 20 15
M  V30 26 1 13 8
M  V30 27 1 24 18
M  V30 28 1 3 25
M  V30 29 1 3 26
M  V30 30 1 4 27
M  V30 31 1 4 28
M  V30 32 1 6 29
M  V30 33 1 6 30
M  V30 34 1 7 31
M  V30 35 1 7 32
M  V30 36 1 9 33
M  V30 37 1 10 34
M  V30 38 1 11 35
M  V30 39 1 12 36
M  V30 40 1 14 37
M  V30 41 1 14 38
M  V30 42 1 16 39
M  V30 43 1 17 40
M  V30 44 1 20 41
M  V30 45 1 22 42
M  V30 46 1 22 43
M  V30 47 1 23 44
M  V30 48 1 23 45
M  V30 END BOND
M  V30 END CTAB
M  END
>  <Dataset>  (754) 
ChEMBL_Kinases

>  <Ligand_Instance>  (754) 
nan

>  <PDB_ID>  (754) 
nan

>  <Standardized_SMILES>  (754) 
O=C(CCN1CCc2ccccc2C1)c1ccc2c(c1)OCCO2

>  <Name>  (754) 
nan

>  <Pocket>  (754) 
nan

>  <ATP_Site>  (754) 
nan

>  <Peripheral>  (754) 
nan

>  <Num_H_Atoms_ProtBoundConf>  (754) 
nan

>  <Num_Resolved_Atoms>  (754) 
nan

>  <Num_Not_Resolved_Atoms>  (754) 
nan

$$$$
CHEMBL1429929
     RDKit          3D

  0  0  0  0  0  0  0  0  0  0999 V3000
M  V30 BEGIN CTAB
M  V30 COUNTS 41 42 0 0 0
M  V30 BEGIN ATOM
M  V30 1 C 3.088010 -5.454407 2.098174 0
M  V30 2 C 2.785270 -5.695902 0.655408 0
M  V30 3 O 2.136284 -4.615745 0.020878 0
M  V30 4 C 2.657880 -3.352801 -0.089717 0
M  V30 5 O 3.789682 -3.406445 0.483944 0
M  V30 6 C 1.870315 -2.301013 -0.784313 0
M  V30 7 C 2.563059 -0.980021 -0.827390 0
M  V30 8 S 1.581271 0.246879 -1.668736 0
M  V30 9 O 2.269369 1.566102 -1.624350 0
M  V30 10 O 1.270613 -0.202173 -3.054095 0
M  V30 11 C 0.075482 0.394643 -0.777389 0
M  V30 12 N -0.000364 1.294632 0.223999 0
M  V30 13 C -1.108053 1.481543 0.963492 0
M  V30 14 C -1.105208 2.477881 2.029836 0
M  V30 15 C 0.068369 3.180535 2.211587 0
M  V30 16 C 0.193981 4.147647 3.186856 0
M  V30 17 C -0.896997 4.398115 3.986314 0
M  V30 18 C -2.067981 3.695507 3.803348 0
M  V30 19 C -2.180716 2.727458 2.820809 0
M  V30 20 C -2.186912 0.686415 0.636554 0
M  V30 21 C -2.162135 -0.245872 -0.374588 0
M  V30 22 C -3.346168 -1.085581 -0.698111 0
M  V30 23 F -2.821135 -2.257730 -1.258438 0
M  V30 24 F -4.082875 -1.410290 0.403764 0
M  V30 25 F -4.099779 -0.495771 -1.679166 0
M  V30 26 N -1.003693 -0.374488 -1.076314 0
M  V30 27 H 3.066964 -6.432848 2.626594 0
M  V30 28 H 4.141601 -5.081505 2.255038 0
M  V30 29 H 2.361677 -4.782369 2.603677 0
M  V30 30 H 2.113949 -6.576131 0.580578 0
M  V30 31 H 3.735597 -5.970409 0.157329 0
M  V30 32 H 0.887792 -2.172451 -0.318071 0
M  V30 33 H 1.695228 -2.648998 -1.834433 0
M  V30 34 H 3.524485 -1.029904 -1.411335 0
M  V30 35 H 2.736291 -0.583531 0.192398 0
M  V30 36 H 0.975152 3.031290 1.610261 0
M  V30 37 H 1.079807 4.734614 3.384699 0
M  V30 38 H -0.908694 5.131312 4.777735 0
M  V30 39 H -2.950858 3.866576 4.416423 0
M  V30 40 H -3.094711 2.195426 2.695555 0
M  V30 41 H -3.099014 0.803757 1.206278 0
M  V30 END ATOM
M  V30 BEGIN BOND
M  V30 1 1 1 2
M  V30 2 1 2 3
M  V30 3 1 3 4
M  V30 4 2 4 5
M  V30 5 1 4 6
M  V30 6 1 6 7
M  V30 7 1 7 8
M  V30 8 2 8 9
M  V30 9 2 8 10
M  V30 10 1 8 11
M  V30 11 2 11 12
M  V30 12 1 12 13
M  V30 13 1 13 14
M  V30 14 2 14 15
M  V30 15 1 15 16
M  V30 16 2 16 17
M  V30 17 1 17 18
M  V30 18 2 18 19
M  V30 19 2 13 20
M  V30 20 1 20 21
M  V30 21 1 21 22
M  V30 22 1 22 23
M  V30 23 1 22 24
M  V30 24 1 22 25
M  V30 25 2 21 26
M  V30 26 1 26 11
M  V30 27 1 19 14
M  V30 28 1 1 27
M  V30 29 1 1 28
M  V30 30 1 1 29
M  V30 31 1 2 30
M  V30 32 1 2 31
M  V30 33 1 6 32
M  V30 34 1 6 33
M  V30 35 1 7 34
M  V30 36 1 7 35
M  V30 37 1 15 36
M  V30 38 1 16 37
M  V30 39 1 17 38
M  V30 40 1 18 39
M  V30 41 1 19 40
M  V30 42 1 20 41
M  V30 END BOND
M  V30 END CTAB
M  END
>  <Dataset>  (755) 
ChEMBL_Kinases

>  <Ligand_Instance>  (755) 
nan

>  <PDB_ID>  (755) 
nan

>  <Standardized_SMILES>  (755) 
CCOC(=O)CCS(=O)(=O)c1nc(-c2ccccc2)cc(C(F)(F)F)n1

>  <Name>  (755) 
nan

>  <Pocket>  (755) 
nan

>  <ATP_Site>  (755) 
nan

>  <Peripheral>  (755) 
nan

>  <Num_H_Atoms_ProtBoundConf>  (755) 
nan

>  <Num_Resolved_Atoms>  (755) 
nan

>  <Num_Not_Resolved_Atoms>  (755) 
nan

$$$$
CHEMBL1429941
     RDKit          3D

  0  0  0  0  0  0  0  0  0  0999 V3000
M  V30 BEGIN CTAB
M  V30 COUNTS 50 53 0 0 0
M  V30 BEGIN ATOM
M  V30 1 C 4.275331 -6.548880 -1.802832 0
M  V30 2 C 3.782013 -5.225242 -1.329702 0
M  V30 3 C 2.519647 -5.050302 -0.784839 0
M  V30 4 C 2.075570 -3.818497 -0.350539 0
M  V30 5 C 2.892494 -2.694056 -0.446560 0
M  V30 6 S 2.173707 -1.215495 0.150616 0
M  V30 7 O 1.376570 -1.516110 1.355886 0
M  V30 8 O 3.329592 -0.356591 0.589696 0
M  V30 9 N 1.326476 -0.395380 -1.076821 0
M  V30 10 C 2.290428 -0.042700 -2.127963 0
M  V30 11 C 2.993478 1.205407 -1.583157 0
M  V30 12 C 2.055154 1.774808 -0.526943 0
M  V30 13 C 0.839936 0.898952 -0.716019 0
M  V30 14 C -0.122486 0.931235 0.389683 0
M  V30 15 O -0.691677 0.103201 1.167439 0
M  V30 16 N -0.589442 2.231112 0.738602 0
M  V30 17 C -1.578035 2.112832 1.896444 0
M  V30 18 N -2.769358 1.965744 1.559783 0
M  V30 19 C -3.729554 1.850092 2.481130 0
M  V30 20 C -3.366047 1.897942 3.817216 0
M  V30 21 S -1.489608 2.127899 3.632141 0
M  V30 22 C -4.493013 1.761450 4.799042 0
M  V30 23 C -5.190437 0.469992 4.486156 0
M  V30 24 C -5.740718 0.551522 3.112681 0
M  V30 25 C -5.211081 1.667588 2.275209 0
M  V30 26 C 4.151345 -2.852772 -0.986653 0
M  V30 27 C 4.571071 -4.096759 -1.413656 0
M  V30 28 H 4.282475 -6.568569 -2.904076 0
M  V30 29 H 5.275298 -6.731229 -1.364983 0
M  V30 30 H 3.603942 -7.336116 -1.425937 0
M  V30 31 H 1.870911 -5.918838 -0.703604 0
M  V30 32 H 1.071875 -3.784437 0.060843 0
M  V30 33 H 1.662910 0.186090 -3.018580 0
M  V30 34 H 2.995605 -0.882311 -2.294081 0
M  V30 35 H 3.992121 0.974987 -1.213219 0
M  V30 36 H 3.019778 1.903024 -2.470363 0
M  V30 37 H 1.811659 2.836267 -0.813901 0
M  V30 38 H 2.465932 1.809593 0.473863 0
M  V30 39 H 0.396363 1.303618 -1.677046 0
M  V30 40 H -0.359919 3.168122 0.336957 0
M  V30 41 H -5.098285 2.666151 4.665689 0
M  V30 42 H -4.105062 1.794636 5.837701 0
M  V30 43 H -6.007164 0.349815 5.208533 0
M  V30 44 H -4.431213 -0.335398 4.584834 0
M  V30 45 H -5.562251 -0.427171 2.603609 0
M  V30 46 H -6.840135 0.658762 3.139960 0
M  V30 47 H -5.451412 1.438508 1.208561 0
M  V30 48 H -5.678123 2.645485 2.495625 0
M  V30 49 H 4.735884 -1.945220 -1.033444 0
M  V30 50 H 5.568976 -4.184197 -1.833718 0
M  V30 END ATOM
M  V30 BEGIN BOND
M  V30 1 1 1 2
M  V30 2 2 2 3
M  V30 3 1 3 4
M  V30 4 2 4 5
M  V30 5 1 5 6
M  V30 6 2 6 7
M  V30 7 2 6 8
M  V30 8 1 6 9
M  V30 9 1 9 10
M  V30 10 1 10 11
M  V30 11 1 11 12
M  V30 12 1 12 13
M  V30 13 1 13 14
M  V30 14 2 14 15
M  V30 15 1 14 16
M  V30 16 1 16 17
M  V30 17 2 17 18
M  V30 18 1 18 19
M  V30 19 2 19 20
M  V30 20 1 20 21
M  V30 21 1 20 22
M  V30 22 1 22 23
M  V30 23 1 23 24
M  V30 24 1 24 25
M  V30 25 1 5 26
M  V30 26 2 26 27
M  V30 27 1 27 2
M  V30 28 1 13 9
M  V30 29 1 21 17
M  V30 30 1 25 19
M  V30 31 1 1 28
M  V30 32 1 1 29
M  V30 33 1 1 30
M  V30 34 1 3 31
M  V30 35 1 4 32
M  V30 36 1 10 33
M  V30 37 1 10 34
M  V30 38 1 11 35
M  V30 39 1 11 36
M  V30 40 1 12 37
M  V30 41 1 12 38
M  V30 42 1 13 39
M  V30 43 1 16 40
M  V30 44 1 22 41
M  V30 45 1 22 42
M  V30 46 1 23 43
M  V30 47 1 23 44
M  V30 48 1 24 45
M  V30 49 1 24 46
M  V30 50 1 25 47
M  V30 51 1 25 48
M  V30 52 1 26 49
M  V30 53 1 27 50
M  V30 END BOND
M  V30 END CTAB
M  END
>  <Dataset>  (756) 
ChEMBL_Kinases

>  <Ligand_Instance>  (756) 
nan

>  <PDB_ID>  (756) 
nan

>  <Standardized_SMILES>  (756) 
Cc1ccc(S(=O)(=O)N2CCCC2C(=O)Nc2nc3c(s2)CCCC3)cc1

>  <Name>  (756) 
nan

>  <Pocket>  (756) 
nan

>  <ATP_Site>  (756) 
nan

>  <Peripheral>  (756) 
nan

>  <Num_H_Atoms_ProtBoundConf>  (756) 
nan

>  <Num_Resolved_Atoms>  (756) 
nan

>  <Num_Not_Resolved_Atoms>  (756) 
nan

$$$$
CHEMBL1430034
     RDKit          3D

  0  0  0  0  0  0  0  0  0  0999 V3000
M  V30 BEGIN CTAB
M  V30 COUNTS 64 66 0 0 0
M  V30 BEGIN ATOM
M  V30 1 C 1.253947 1.970228 5.251313 0
M  V30 2 C 0.528672 2.220740 3.924572 0
M  V30 3 O 1.477708 2.019870 2.911603 0
M  V30 4 C 1.240547 2.143174 1.552558 0
M  V30 5 O 0.068142 2.465849 1.159982 0
M  V30 6 C 2.477484 1.857222 0.770644 0
M  V30 7 N 2.245584 1.987289 -0.649842 0
M  V30 8 C 1.849319 0.723425 -1.105665 0
M  V30 9 O 1.717136 1.366128 -2.151939 0
M  V30 10 C 1.466718 -0.610857 -1.450064 0
M  V30 11 S 1.568219 -1.830092 -0.111231 0
M  V30 12 C 0.393199 -1.546610 1.186392 0
M  V30 13 N 0.278768 -0.884647 2.349728 0
M  V30 14 N -0.890916 -1.057007 2.902292 0
M  V30 15 C -1.592841 -1.861966 2.088061 0
M  V30 16 C -2.961628 -2.266602 2.403232 0
M  V30 17 C -4.060260 -1.886079 1.660966 0
M  V30 18 C -5.342029 -2.280812 1.977989 0
M  V30 19 N -5.570038 -3.072179 3.051778 0
M  V30 20 C -4.519066 -3.469774 3.809270 0
M  V30 21 C -3.228708 -3.078834 3.499061 0
M  V30 22 N -0.795566 -2.165459 1.023288 0
M  V30 23 C -1.367854 -3.049216 -0.014355 0
M  V30 24 C -1.099281 -4.479466 0.277481 0
M  V30 25 C -1.681693 -5.390443 -0.732614 0
M  V30 26 N -1.284534 -5.291470 -2.075742 0
M  V30 27 C -1.674816 -4.165910 -2.842373 0
M  V30 28 C 0.034152 -5.781121 -2.367644 0
M  V30 29 C 2.441810 3.211749 -1.302661 0
M  V30 30 C 2.608847 3.563723 -2.613881 0
M  V30 31 C 2.731649 4.833474 -3.085690 0
M  V30 32 C 2.691314 5.885529 -2.207567 0
M  V30 33 C 2.526519 5.600790 -0.875786 0
M  V30 34 C 2.408674 4.302699 -0.466123 0
M  V30 35 H 1.915766 2.837287 5.410767 0
M  V30 36 H 1.911668 1.079333 5.102419 0
M  V30 37 H 0.561239 1.764971 6.069807 0
M  V30 38 H -0.325832 1.526540 3.903158 0
M  V30 39 H 0.155727 3.276142 3.957706 0
M  V30 40 H 3.292833 2.560931 1.111343 0
M  V30 41 H 2.843579 0.866112 1.099075 0
M  V30 42 H 0.459721 -0.686512 -1.966317 0
M  V30 43 H 2.168568 -1.016330 -2.240172 0
M  V30 44 H -3.917826 -1.254603 0.796363 0
M  V30 45 H -6.208673 -2.002087 1.422305 0
M  V30 46 H -4.716606 -4.110388 4.676244 0
M  V30 47 H -2.381826 -3.397490 4.107107 0
M  V30 48 H -0.836703 -2.813861 -0.977709 0
M  V30 49 H -2.426748 -2.872962 -0.164060 0
M  V30 50 H -0.012386 -4.671578 0.474820 0
M  V30 51 H -1.627474 -4.711622 1.254286 0
M  V30 52 H -2.797634 -5.233037 -0.700998 0
M  V30 53 H -1.524088 -6.469244 -0.422907 0
M  V30 54 H -0.827404 -3.529344 -3.221358 0
M  V30 55 H -2.520610 -3.584063 -2.440549 0
M  V30 56 H -2.092749 -4.590084 -3.816857 0
M  V30 57 H -0.083454 -6.596381 -3.134342 0
M  V30 58 H 0.724341 -5.045850 -2.785908 0
M  V30 59 H 0.444896 -6.275600 -1.471159 0
M  V30 60 H 2.669138 2.794193 -3.354777 0
M  V30 61 H 2.860483 5.036789 -4.134754 0
M  V30 62 H 2.786579 6.896572 -2.561538 0
M  V30 63 H 2.498166 6.438930 -0.210107 0
M  V30 64 H 2.278594 4.214511 0.604795 0
M  V30 END ATOM
M  V30 BEGIN BOND
M  V30 1 1 1 2
M  V30 2 1 2 3
M  V30 3 1 3 4
M  V30 4 2 4 5
M  V30 5 1 4 6
M  V30 6 1 6 7
M  V30 7 1 7 8
M  V30 8 2 8 9
M  V30 9 1 8 10
M  V30 10 1 10 11
M  V30 11 1 11 12
M  V30 12 2 12 13
M  V30 13 1 13 14
M  V30 14 2 14 15
M  V30 15 1 15 16
M  V30 16 2 16 17
M  V30 17 1 17 18
M  V30 18 2 18 19
M  V30 19 1 19 20
M  V30 20 2 20 21
M  V30 21 1 15 22
M  V30 22 1 22 23
M  V30 23 1 23 24
M  V30 24 1 24 25
M  V30 25 1 25 26
M  V30 26 1 26 27
M  V30 27 1 26 28
M  V30 28 1 7 29
M  V30 29 2 29 30
M  V30 30 1 30 31
M  V30 31 2 31 32
M  V30 32 1 32 33
M  V30 33 2 33 34
M  V30 34 1 22 12
M  V30 35 1 34 29
M  V30 36 1 21 16
M  V30 37 1 1 35
M  V30 38 1 1 36
M  V30 39 1 1 37
M  V30 40 1 2 38
M  V30 41 1 2 39
M  V30 42 1 6 40
M  V30 43 1 6 41
M  V30 44 1 10 42
M  V30 45 1 10 43
M  V30 46 1 17 44
M  V30 47 1 18 45
M  V30 48 1 20 46
M  V30 49 1 21 47
M  V30 50 1 23 48
M  V30 51 1 23 49
M  V30 52 1 24 50
M  V30 53 1 24 51
M  V30 54 1 25 52
M  V30 55 1 25 53
M  V30 56 1 27 54
M  V30 57 1 27 55
M  V30 58 1 27 56
M  V30 59 1 28 57
M  V30 60 1 28 58
M  V30 61 1 28 59
M  V30 62 1 30 60
M  V30 63 1 31 61
M  V30 64 1 32 62
M  V30 65 1 33 63
M  V30 66 1 34 64
M  V30 END BOND
M  V30 END CTAB
M  END
>  <Dataset>  (757) 
ChEMBL_Kinases

>  <Ligand_Instance>  (757) 
nan

>  <PDB_ID>  (757) 
nan

>  <Standardized_SMILES>  (757) 
CCOC(=O)CN(C(=O)CSc1nnc(-c2ccncc2)n1CCCN(C)C)c1ccccc1

>  <Name>  (757) 
nan

>  <Pocket>  (757) 
nan

>  <ATP_Site>  (757) 
nan

>  <Peripheral>  (757) 
nan

>  <Num_H_Atoms_ProtBoundConf>  (757) 
nan

>  <Num_Resolved_Atoms>  (757) 
nan

>  <Num_Not_Resolved_Atoms>  (757) 
nan

$$$$
CHEMBL1430111
     RDKit          3D

  0  0  0  0  0  0  0  0  0  0999 V3000
M  V30 BEGIN CTAB
M  V30 COUNTS 45 47 0 0 0
M  V30 BEGIN ATOM
M  V30 1 C -1.494188 -5.565960 -0.942259 0
M  V30 2 N -2.165826 -4.302845 -0.720316 0
M  V30 3 C -1.295567 -3.263687 -0.256358 0
M  V30 4 O -0.477108 -4.207062 -0.354331 0
M  V30 5 N -0.950880 -1.901328 0.191491 0
M  V30 6 C 0.424729 -1.849063 0.480426 0
M  V30 7 O 1.366623 -2.617135 0.450394 0
M  V30 8 N 0.426276 -0.455091 0.869872 0
M  V30 9 C 1.526095 0.337269 1.298182 0
M  V30 10 C 1.969482 1.458616 0.465689 0
M  V30 11 C 1.317428 2.783363 0.685015 0
M  V30 12 C 1.207201 3.157226 2.159551 0
M  V30 13 C 2.601643 3.348302 2.653065 0
M  V30 14 C 3.370565 2.049672 2.396325 0
M  V30 15 C 3.402990 1.723349 0.924815 0
M  V30 16 C 2.709807 1.033135 3.266522 0
M  V30 17 C 1.310821 0.777396 2.721461 0
M  V30 18 C 0.459767 2.017217 2.806287 0
M  V30 19 S -3.859662 -4.149356 -1.001399 0
M  V30 20 C -4.224755 -3.629564 -2.640392 0
M  V30 21 O -4.520354 -3.222809 0.007654 0
M  V30 22 O -4.528348 -5.488441 -0.779521 0
M  V30 23 H -0.748009 -5.420244 -1.739019 0
M  V30 24 H -1.085052 -5.924757 0.022357 0
M  V30 25 H -2.255498 -6.334005 -1.221139 0
M  V30 26 H -1.914762 -1.939348 -0.011358 0
M  V30 27 H -0.362618 0.267664 0.921724 0
M  V30 28 H 2.387358 -0.393381 1.337378 0
M  V30 29 H 2.028939 1.264503 -0.601255 0
M  V30 30 H 1.996720 3.579085 0.273710 0
M  V30 31 H 0.367664 2.972054 0.198541 0
M  V30 32 H 0.615041 4.105266 2.196268 0
M  V30 33 H 3.075722 4.153561 2.094938 0
M  V30 34 H 2.581910 3.477483 3.734627 0
M  V30 35 H 4.431170 2.150131 2.763736 0
M  V30 36 H 3.825726 2.613154 0.406040 0
M  V30 37 H 4.047904 0.837068 0.813859 0
M  V30 38 H 2.557547 1.517530 4.258762 0
M  V30 39 H 3.190452 0.058914 3.329474 0
M  V30 40 H 0.809336 -0.037377 3.242377 0
M  V30 41 H 0.112035 2.219516 3.816735 0
M  V30 42 H -0.437363 1.852586 2.179450 0
M  V30 43 H -4.302614 -2.523410 -2.651286 0
M  V30 44 H -3.430903 -3.899613 -3.367519 0
M  V30 45 H -5.238613 -4.002585 -2.960430 0
M  V30 END ATOM
M  V30 BEGIN BOND
M  V30 1 1 1 2
M  V30 2 1 2 3
M  V30 3 2 3 4
M  V30 4 1 3 5
M  V30 5 1 5 6
M  V30 6 2 6 7
M  V30 7 1 6 8
M  V30 8 1 8 9
M  V30 9 1 9 10
M  V30 10 1 10 11
M  V30 11 1 11 12
M  V30 12 1 12 13
M  V30 13 1 13 14
M  V30 14 1 14 15
M  V30 15 1 14 16
M  V30 16 1 16 17
M  V30 17 1 17 18
M  V30 18 1 2 19
M  V30 19 1 19 20
M  V30 20 2 19 21
M  V30 21 2 19 22
M  V30 22 1 17 9
M  V30 23 1 15 10
M  V30 24 1 18 12
M  V30 25 1 1 23
M  V30 26 1 1 24
M  V30 27 1 1 25
M  V30 28 1 5 26
M  V30 29 1 8 27
M  V30 30 1 9 28
M  V30 31 1 10 29
M  V30 32 1 11 30
M  V30 33 1 11 31
M  V30 34 1 12 32
M  V30 35 1 13 33
M  V30 36 1 13 34
M  V30 37 1 14 35
M  V30 38 1 15 36
M  V30 39 1 15 37
M  V30 40 1 16 38
M  V30 41 1 16 39
M  V30 42 1 17 40
M  V30 43 1 18 41
M  V30 44 1 18 42
M  V30 45 1 20 43
M  V30 46 1 20 44
M  V30 47 1 20 45
M  V30 END BOND
M  V30 END CTAB
M  END
>  <Dataset>  (758) 
ChEMBL_Kinases

>  <Ligand_Instance>  (758) 
nan

>  <PDB_ID>  (758) 
nan

>  <Standardized_SMILES>  (758) 
CN(C(=O)NC(=O)NC1C2CC3CC(C2)CC1C3)S(C)(=O)=O

>  <Name>  (758) 
nan

>  <Pocket>  (758) 
nan

>  <ATP_Site>  (758) 
nan

>  <Peripheral>  (758) 
nan

>  <Num_H_Atoms_ProtBoundConf>  (758) 
nan

>  <Num_Resolved_Atoms>  (758) 
nan

>  <Num_Not_Resolved_Atoms>  (758) 
nan

$$$$
CHEMBL1431088
     RDKit          3D

  0  0  0  0  0  0  0  0  0  0999 V3000
M  V30 BEGIN CTAB
M  V30 COUNTS 50 52 0 0 0
M  V30 BEGIN ATOM
M  V30 1 C -2.153803 -1.233485 4.926217 0
M  V30 2 C -1.534761 -0.907834 3.600768 0
M  V30 3 O -0.453656 -1.533121 3.450715 0
M  V30 4 N -2.032800 -0.031516 2.603581 0
M  V30 5 C -1.126865 -0.020827 1.506731 0
M  V30 6 C -0.128892 0.939917 1.666261 0
M  V30 7 C 0.841407 1.098293 0.698559 0
M  V30 8 C 1.891147 2.098208 0.840903 0
M  V30 9 O 1.261739 3.054925 0.318464 0
M  V30 10 N 3.220797 2.143327 1.365501 0
M  V30 11 C 4.124373 1.167517 2.000488 0
M  V30 12 C 4.620164 1.842665 3.270265 0
M  V30 13 O 3.875041 2.953745 3.627138 0
M  V30 14 C 3.880632 3.972147 2.708053 0
M  V30 15 C 3.843555 3.448798 1.264942 0
M  V30 16 C 0.816453 0.298540 -0.427081 0
M  V30 17 C -0.170710 -0.656360 -0.592031 0
M  V30 18 C -1.141204 -0.812935 0.377239 0
M  V30 19 S -2.458181 -1.973740 0.294669 0
M  V30 20 O -2.433949 -2.870252 1.498371 0
M  V30 21 O -3.796302 -1.250902 0.361480 0
M  V30 22 C -2.404256 -2.918353 -1.174352 0
M  V30 23 C -3.080216 -2.475136 -2.310203 0
M  V30 24 C -2.980818 -3.296774 -3.440046 0
M  V30 25 C -2.246533 -4.487557 -3.422551 0
M  V30 26 C -2.196255 -5.291754 -4.655221 0
M  V30 27 C -1.599749 -4.877355 -2.276833 0
M  V30 28 C -1.676179 -4.083398 -1.129584 0
M  V30 29 H -2.987037 -0.520669 5.120073 0
M  V30 30 H -1.410127 -1.283250 5.732552 0
M  V30 31 H -2.635963 -2.235954 4.798246 0
M  V30 32 H -2.937391 0.409167 2.880039 0
M  V30 33 H -0.037831 1.610498 2.524920 0
M  V30 34 H 3.632799 0.209858 2.160002 0
M  V30 35 H 5.009694 1.121378 1.310478 0
M  V30 36 H 4.522705 1.107805 4.083312 0
M  V30 37 H 5.686564 2.154986 3.194119 0
M  V30 38 H 4.711641 4.661767 2.868318 0
M  V30 39 H 2.927865 4.545899 2.835812 0
M  V30 40 H 4.903579 3.339731 0.957345 0
M  V30 41 H 3.291561 4.160383 0.617694 0
M  V30 42 H 1.573341 0.409301 -1.197678 0
M  V30 43 H -0.236366 -1.317956 -1.467663 0
M  V30 44 H -3.650070 -1.555110 -2.330634 0
M  V30 45 H -3.525015 -2.915550 -4.312655 0
M  V30 46 H -2.418647 -6.368660 -4.504579 0
M  V30 47 H -1.160500 -5.270905 -5.104458 0
M  V30 48 H -2.942399 -4.947503 -5.403777 0
M  V30 49 H -1.029625 -5.807098 -2.272948 0
M  V30 50 H -1.147436 -4.446342 -0.271698 0
M  V30 END ATOM
M  V30 BEGIN BOND
M  V30 1 1 1 2
M  V30 2 2 2 3
M  V30 3 1 2 4
M  V30 4 1 4 5
M  V30 5 2 5 6
M  V30 6 1 6 7
M  V30 7 1 7 8
M  V30 8 2 8 9
M  V30 9 1 8 10
M  V30 10 1 10 11
M  V30 11 1 11 12
M  V30 12 1 12 13
M  V30 13 1 13 14
M  V30 14 1 14 15
M  V30 15 2 7 16
M  V30 16 1 16 17
M  V30 17 2 17 18
M  V30 18 1 18 19
M  V30 19 2 19 20
M  V30 20 2 19 21
M  V30 21 1 19 22
M  V30 22 2 22 23
M  V30 23 1 23 24
M  V30 24 2 24 25
M  V30 25 1 25 26
M  V30 26 1 25 27
M  V30 27 2 27 28
M  V30 28 1 18 5
M  V30 29 1 28 22
M  V30 30 1 15 10
M  V30 31 1 1 29
M  V30 32 1 1 30
M  V30 33 1 1 31
M  V30 34 1 4 32
M  V30 35 1 6 33
M  V30 36 1 11 34
M  V30 37 1 11 35
M  V30 38 1 12 36
M  V30 39 1 12 37
M  V30 40 1 14 38
M  V30 41 1 14 39
M  V30 42 1 15 40
M  V30 43 1 15 41
M  V30 44 1 16 42
M  V30 45 1 17 43
M  V30 46 1 23 44
M  V30 47 1 24 45
M  V30 48 1 26 46
M  V30 49 1 26 47
M  V30 50 1 26 48
M  V30 51 1 27 49
M  V30 52 1 28 50
M  V30 END BOND
M  V30 END CTAB
M  END
>  <Dataset>  (759) 
ChEMBL_Kinases

>  <Ligand_Instance>  (759) 
nan

>  <PDB_ID>  (759) 
nan

>  <Standardized_SMILES>  (759) 
CC(=O)Nc1cc(C(=O)N2CCOCC2)ccc1S(=O)(=O)c1ccc(C)cc1

>  <Name>  (759) 
nan

>  <Pocket>  (759) 
nan

>  <ATP_Site>  (759) 
nan

>  <Peripheral>  (759) 
nan

>  <Num_H_Atoms_ProtBoundConf>  (759) 
nan

>  <Num_Resolved_Atoms>  (759) 
nan

>  <Num_Not_Resolved_Atoms>  (759) 
nan

$$$$
CHEMBL1430184
     RDKit          3D

  0  0  0  0  0  0  0  0  0  0999 V3000
M  V30 BEGIN CTAB
M  V30 COUNTS 46 49 0 0 0
M  V30 BEGIN ATOM
M  V30 1 C -0.038966 -6.087794 0.336475 0
M  V30 2 C 0.293257 -5.881654 -1.132147 0
M  V30 3 C -0.598538 -4.850320 -1.779909 0
M  V30 4 N -0.482916 -3.554741 -1.142820 0
M  V30 5 C 0.521180 -2.641208 -1.639869 0
M  V30 6 O 1.249182 -3.034871 -2.610977 0
M  V30 7 C 0.774330 -1.298841 -1.122062 0
M  V30 8 C 1.769188 -0.530007 -1.693268 0
M  V30 9 C 1.955516 0.735462 -1.151596 0
M  V30 10 C 1.199264 1.230324 -0.093128 0
M  V30 11 C 0.232822 0.385674 0.405198 0
M  V30 12 C -0.527018 0.861818 1.456501 0
M  V30 13 N -0.388280 2.162422 2.067062 0
M  V30 14 C -0.501816 3.543349 1.579039 0
M  V30 15 C 0.515923 4.382778 2.265346 0
M  V30 16 C 1.704167 3.672218 2.806409 0
M  V30 17 C 1.418328 2.432426 3.583989 0
M  V30 18 C -0.061356 2.126343 3.491210 0
M  V30 19 C -1.523585 0.039686 1.998614 0
M  V30 20 C -1.776198 -1.246109 1.512875 0
M  V30 21 C -1.002667 -1.700517 0.460167 0
M  V30 22 C -0.021185 -0.885824 -0.070849 0
M  V30 23 C -1.252990 -3.042021 -0.060138 0
M  V30 24 O -2.134571 -3.815670 0.391823 0
M  V30 25 H 0.575056 -6.941949 0.747428 0
M  V30 26 H -1.111482 -6.358328 0.395028 0
M  V30 27 H 0.172465 -5.189065 0.950697 0
M  V30 28 H 0.233624 -6.861259 -1.614761 0
M  V30 29 H 1.358393 -5.566507 -1.171800 0
M  V30 30 H -0.237203 -4.748976 -2.827743 0
M  V30 31 H -1.643479 -5.197251 -1.827156 0
M  V30 32 H 2.376811 -0.886212 -2.519779 0
M  V30 33 H 2.743681 1.358270 -1.596196 0
M  V30 34 H 1.368608 2.206413 0.298531 0
M  V30 35 H -1.504840 3.879041 1.974688 0
M  V30 36 H -0.559928 3.620965 0.496437 0
M  V30 37 H 0.089575 5.005499 3.103462 0
M  V30 38 H 0.904088 5.153719 1.547231 0
M  V30 39 H 2.219056 4.382013 3.503328 0
M  V30 40 H 2.467473 3.468905 2.018786 0
M  V30 41 H 1.923255 1.539653 3.110816 0
M  V30 42 H 1.786773 2.464438 4.637160 0
M  V30 43 H -0.316684 1.160988 3.968389 0
M  V30 44 H -0.592237 2.924779 4.055850 0
M  V30 45 H -2.132908 0.388042 2.822316 0
M  V30 46 H -2.554874 -1.852569 1.957247 0
M  V30 END ATOM
M  V30 BEGIN BOND
M  V30 1 1 1 2
M  V30 2 1 2 3
M  V30 3 1 3 4
M  V30 4 1 4 5
M  V30 5 2 5 6
M  V30 6 1 5 7
M  V30 7 1 7 8
M  V30 8 2 8 9
M  V30 9 1 9 10
M  V30 10 2 10 11
M  V30 11 1 11 12
M  V30 12 1 12 13
M  V30 13 1 13 14
M  V30 14 1 14 15
M  V30 15 1 15 16
M  V30 16 1 16 17
M  V30 17 1 17 18
M  V30 18 2 12 19
M  V30 19 1 19 20
M  V30 20 2 20 21
M  V30 21 1 21 22
M  V30 22 1 21 23
M  V30 23 2 23 24
M  V30 24 1 23 4
M  V30 25 2 22 7
M  V30 26 1 22 11
M  V30 27 1 18 13
M  V30 28 1 1 25
M  V30 29 1 1 26
M  V30 30 1 1 27
M  V30 31 1 2 28
M  V30 32 1 2 29
M  V30 33 1 3 30
M  V30 34 1 3 31
M  V30 35 1 8 32
M  V30 36 1 9 33
M  V30 37 1 10 34
M  V30 38 1 14 35
M  V30 39 1 14 36
M  V30 40 1 15 37
M  V30 41 1 15 38
M  V30 42 1 16 39
M  V30 43 1 16 40
M  V30 44 1 17 41
M  V30 45 1 17 42
M  V30 46 1 18 43
M  V30 47 1 18 44
M  V30 48 1 19 45
M  V30 49 1 20 46
M  V30 END BOND
M  V30 END CTAB
M  END
>  <Dataset>  (760) 
ChEMBL_Kinases

>  <Ligand_Instance>  (760) 
nan

>  <PDB_ID>  (760) 
nan

>  <Standardized_SMILES>  (760) 
CCCN1C(=O)c2cccc3c(N4CCCCC4)ccc(c23)C1=O

>  <Name>  (760) 
nan

>  <Pocket>  (760) 
nan

>  <ATP_Site>  (760) 
nan

>  <Peripheral>  (760) 
nan

>  <Num_H_Atoms_ProtBoundConf>  (760) 
nan

>  <Num_Resolved_Atoms>  (760) 
nan

>  <Num_Not_Resolved_Atoms>  (760) 
nan

$$$$
CHEMBL1430225
     RDKit          3D

  0  0  0  0  0  0  0  0  0  0999 V3000
M  V30 BEGIN CTAB
M  V30 COUNTS 30 31 0 0 0
M  V30 BEGIN ATOM
M  V30 1 O 2.740980 -1.836457 4.338304 0
M  V30 2 C 1.745715 -1.815945 3.591162 0
M  V30 3 O 0.573942 -1.353740 4.160461 0
M  V30 4 C 1.798197 -2.250673 2.196205 0
M  V30 5 C 2.932874 -2.720972 1.569765 0
M  V30 6 C 2.492089 -2.999230 0.288426 0
M  V30 7 C 1.140906 -2.697574 0.179754 0
M  V30 8 C 0.240628 -2.834300 -1.009721 0
M  V30 9 S 0.301631 -1.292984 -1.931146 0 CHG=1 VAL=3
M  V30 10 O 1.867840 -0.980296 -2.436909 0 CHG=-1 VAL=1
M  V30 11 C -0.169686 -0.061416 -0.745729 0
M  V30 12 C 0.858640 0.514307 -0.009082 0
M  V30 13 C 0.577590 1.492144 0.945720 0
M  V30 14 C -0.740672 1.872213 1.140126 0
M  V30 15 C -1.727083 1.271426 0.384080 0
M  V30 16 C -3.149534 1.708639 0.621458 0
M  V30 17 F -3.297845 3.047634 0.397763 0
M  V30 18 F -3.509409 1.387019 1.933778 0
M  V30 19 F -3.992119 1.026801 -0.230811 0
M  V30 20 C -1.476231 0.292697 -0.576045 0
M  V30 21 O 0.777063 -2.244633 1.380001 0
M  V30 22 H 0.426975 -1.269500 5.158959 0
M  V30 23 H 3.932867 -2.842479 1.986733 0
M  V30 24 H 3.086474 -3.391838 -0.523471 0
M  V30 25 H -0.794647 -2.905700 -0.619099 0
M  V30 26 H 0.493015 -3.693764 -1.630543 0
M  V30 27 H 1.895277 0.198582 -0.179114 0
M  V30 28 H 1.400852 1.904488 1.486005 0
M  V30 29 H -0.979114 2.630828 1.877881 0
M  V30 30 H -2.244339 -0.172417 -1.162007 0
M  V30 END ATOM
M  V30 BEGIN BOND
M  V30 1 2 1 2
M  V30 2 1 2 3
M  V30 3 1 2 4
M  V30 4 2 4 5
M  V30 5 1 5 6
M  V30 6 2 6 7
M  V30 7 1 7 8
M  V30 8 1 8 9
M  V30 9 1 9 10
M  V30 10 1 9 11
M  V30 11 2 11 12
M  V30 12 1 12 13
M  V30 13 2 13 14
M  V30 14 1 14 15
M  V30 15 1 15 16
M  V30 16 1 16 17
M  V30 17 1 16 18
M  V30 18 1 16 19
M  V30 19 2 15 20
M  V30 20 1 7 21
M  V30 21 1 21 4
M  V30 22 1 20 11
M  V30 23 1 3 22
M  V30 24 1 5 23
M  V30 25 1 6 24
M  V30 26 1 8 25
M  V30 27 1 8 26
M  V30 28 1 12 27
M  V30 29 1 13 28
M  V30 30 1 14 29
M  V30 31 1 20 30
M  V30 END BOND
M  V30 END CTAB
M  END
>  <Dataset>  (761) 
ChEMBL_Kinases

>  <Ligand_Instance>  (761) 
nan

>  <PDB_ID>  (761) 
nan

>  <Standardized_SMILES>  (761) 
O=C(O)c1ccc(C[S+]([O-])c2cccc(C(F)(F)F)c2)o1

>  <Name>  (761) 
nan

>  <Pocket>  (761) 
nan

>  <ATP_Site>  (761) 
nan

>  <Peripheral>  (761) 
nan

>  <Num_H_Atoms_ProtBoundConf>  (761) 
nan

>  <Num_Resolved_Atoms>  (761) 
nan

>  <Num_Not_Resolved_Atoms>  (761) 
nan

$$$$
CHEMBL1430258
     RDKit          3D

  0  0  0  0  0  0  0  0  0  0999 V3000
M  V30 BEGIN CTAB
M  V30 COUNTS 60 63 0 0 0
M  V30 BEGIN ATOM
M  V30 1 C 1.027844 -2.765476 4.948597 0
M  V30 2 C 2.538003 -3.007022 4.816987 0
M  V30 3 C 2.854095 -4.412680 5.126295 0
M  V30 4 C 3.024173 -2.490597 3.514535 0
M  V30 5 C 2.705635 -1.143164 3.437194 0
M  V30 6 C 3.037275 -0.400362 2.325320 0
M  V30 7 C 3.691720 -0.915895 1.232636 0
M  V30 8 O 4.170834 -0.550030 0.013352 0
M  V30 9 C 4.109923 0.692816 -0.612538 0
M  V30 10 C 2.728146 1.135166 -0.892191 0
M  V30 11 C 2.238016 0.634381 -2.113016 0
M  V30 12 C 0.987187 0.878198 -2.631482 0
M  V30 13 C 0.119313 1.671678 -1.926736 0
M  V30 14 C -1.241297 2.075097 -2.223485 0
M  V30 15 O -1.871860 3.162462 -2.066985 0
M  V30 16 N -2.132154 1.138058 -2.808789 0
M  V30 17 C -3.484288 1.602748 -3.064523 0
M  V30 18 C -4.483744 0.899244 -2.171496 0
M  V30 19 N -3.904913 -0.411050 -1.880616 0
M  V30 20 C -3.912943 -1.085000 -0.644641 0
M  V30 21 C -4.541192 -0.618392 0.497937 0
M  V30 22 C -4.514164 -1.316222 1.699563 0
M  V30 23 C -3.834806 -2.536984 1.785150 0
M  V30 24 C -3.228044 -2.953955 0.616480 0
M  V30 25 N -3.273017 -2.253425 -0.531722 0
M  V30 26 C -3.251652 -1.035817 -3.040453 0
M  V30 27 C -1.982664 -0.252847 -3.218707 0
M  V30 28 C 0.560665 2.193044 -0.708656 0
M  V30 29 C 1.819013 1.919918 -0.233654 0
M  V30 30 C 4.006526 -2.285262 1.333113 0
M  V30 31 C 3.677934 -3.058450 2.455003 0
M  V30 32 H 0.544599 -2.685005 3.954241 0
M  V30 33 H 0.590730 -3.639075 5.466069 0
M  V30 34 H 0.817393 -1.850316 5.529293 0
M  V30 35 H 2.974656 -2.348177 5.610287 0
M  V30 36 H 3.098146 -5.058145 4.259364 0
M  V30 37 H 3.652041 -4.570428 5.887455 0
M  V30 38 H 1.933996 -4.911346 5.568005 0
M  V30 39 H 2.194815 -0.487972 4.148514 0
M  V30 40 H 2.859787 0.630753 2.137595 0
M  V30 41 H 4.647770 1.434840 0.032569 0
M  V30 42 H 4.661932 0.596659 -1.574780 0
M  V30 43 H 2.816717 -0.008417 -2.775849 0
M  V30 44 H 0.576265 0.519997 -3.560444 0
M  V30 45 H -3.598324 2.686216 -2.899458 0
M  V30 46 H -3.740140 1.375140 -4.113432 0
M  V30 47 H -4.611688 1.445744 -1.237851 0
M  V30 48 H -5.412155 0.744316 -2.733072 0
M  V30 49 H -5.062015 0.302801 0.449572 0
M  V30 50 H -5.000932 -0.958692 2.593608 0
M  V30 51 H -3.740695 -3.158459 2.635040 0
M  V30 52 H -2.681635 -3.874125 0.571752 0
M  V30 53 H -3.874379 -0.886756 -3.941136 0
M  V30 54 H -3.007434 -2.099504 -2.870425 0
M  V30 55 H -1.657607 -0.382621 -4.254099 0
M  V30 56 H -1.224890 -0.754301 -2.583400 0
M  V30 57 H -0.021454 2.835421 -0.040108 0
M  V30 58 H 2.203108 2.306246 0.685609 0
M  V30 59 H 4.512249 -2.963523 0.644920 0
M  V30 60 H 3.866254 -4.096416 2.642556 0
M  V30 END ATOM
M  V30 BEGIN BOND
M  V30 1 1 1 2
M  V30 2 1 2 3
M  V30 3 1 2 4
M  V30 4 2 4 5
M  V30 5 1 5 6
M  V30 6 2 6 7
M  V30 7 1 7 8
M  V30 8 1 8 9
M  V30 9 1 9 10
M  V30 10 2 10 11
M  V30 11 1 11 12
M  V30 12 2 12 13
M  V30 13 1 13 14
M  V30 14 2 14 15
M  V30 15 1 14 16
M  V30 16 1 16 17
M  V30 17 1 17 18
M  V30 18 1 18 19
M  V30 19 1 19 20
M  V30 20 2 20 21
M  V30 21 1 21 22
M  V30 22 2 22 23
M  V30 23 1 23 24
M  V30 24 2 24 25
M  V30 25 1 19 26
M  V30 26 1 26 27
M  V30 27 1 13 28
M  V30 28 2 28 29
M  V30 29 1 7 30
M  V30 30 2 30 31
M  V30 31 1 31 4
M  V30 32 1 29 10
M  V30 33 1 27 16
M  V30 34 1 25 20
M  V30 35 1 1 32
M  V30 36 1 1 33
M  V30 37 1 1 34
M  V30 38 1 2 35
M  V30 39 1 3 36
M  V30 40 1 3 37
M  V30 41 1 3 38
M  V30 42 1 5 39
M  V30 43 1 6 40
M  V30 44 1 9 41
M  V30 45 1 9 42
M  V30 46 1 11 43
M  V30 47 1 12 44
M  V30 48 1 17 45
M  V30 49 1 17 46
M  V30 50 1 18 47
M  V30 51 1 18 48
M  V30 52 1 21 49
M  V30 53 1 22 50
M  V30 54 1 23 51
M  V30 55 1 24 52
M  V30 56 1 26 53
M  V30 57 1 26 54
M  V30 58 1 27 55
M  V30 59 1 27 56
M  V30 60 1 28 57
M  V30 61 1 29 58
M  V30 62 1 30 59
M  V30 63 1 31 60
M  V30 END BOND
M  V30 END CTAB
M  END
>  <Dataset>  (762) 
ChEMBL_Kinases

>  <Ligand_Instance>  (762) 
nan

>  <PDB_ID>  (762) 
nan

>  <Standardized_SMILES>  (762) 
CC(C)c1ccc(OCc2ccc(C(=O)N3CCN(c4ccccn4)CC3)cc2)cc1

>  <Name>  (762) 
nan

>  <Pocket>  (762) 
nan

>  <ATP_Site>  (762) 
nan

>  <Peripheral>  (762) 
nan

>  <Num_H_Atoms_ProtBoundConf>  (762) 
nan

>  <Num_Resolved_Atoms>  (762) 
nan

>  <Num_Not_Resolved_Atoms>  (762) 
nan

$$$$
CHEMBL1430355
     RDKit          3D

  0  0  0  0  0  0  0  0  0  0999 V3000
M  V30 BEGIN CTAB
M  V30 COUNTS 34 36 0 0 0
M  V30 BEGIN ATOM
M  V30 1 C -0.649661 -4.292022 3.427200 0
M  V30 2 C -1.030475 -2.936862 2.951429 0
M  V30 3 O -1.627406 -2.174604 3.726758 0
M  V30 4 N -0.660850 -2.624334 1.602381 0
M  V30 5 C -0.792759 -1.510610 0.732267 0
M  V30 6 C 0.073498 -0.460274 0.506789 0
M  V30 7 C 1.378405 -0.271955 1.155655 0
M  V30 8 O 1.653290 -1.132760 2.060722 0
M  V30 9 C 2.286925 0.807800 0.797240 0
M  V30 10 C 2.105111 1.335586 -0.480161 0
M  V30 11 C 2.939424 2.384021 -0.895842 0
M  V30 12 C 3.902689 2.845453 -0.021223 0
M  V30 13 F 4.716801 3.880658 -0.432910 0
M  V30 14 C 4.114454 2.350347 1.248102 0
M  V30 15 C 3.263969 1.304701 1.630666 0
M  V30 16 O -0.518606 0.294542 -0.378956 0
M  V30 17 C -1.670939 -0.133697 -0.762522 0
M  V30 18 C -2.498152 0.478673 -1.686940 0
M  V30 19 C -3.690842 -0.167463 -1.940983 0
M  V30 20 C -3.999588 -1.360980 -1.283702 0
M  V30 21 C -3.118098 -1.928199 -0.359556 0
M  V30 22 C -1.898387 -1.300297 -0.074883 0
M  V30 23 H 0.054514 -4.812142 2.757387 0
M  V30 24 H -1.600711 -4.885142 3.400055 0
M  V30 25 H -0.259877 -4.297120 4.469051 0
M  V30 26 H -0.148180 -3.353851 1.016253 0
M  V30 27 H 1.416721 1.082384 -1.252850 0
M  V30 28 H 2.888096 2.870865 -1.882193 0
M  V30 29 H 4.881577 2.737260 1.904903 0
M  V30 30 H 3.365715 0.856685 2.627322 0
M  V30 31 H -2.240034 1.404126 -2.187468 0
M  V30 32 H -4.415491 0.226232 -2.654196 0
M  V30 33 H -4.908815 -1.907137 -1.439147 0
M  V30 34 H -3.313923 -2.853371 0.177597 0
M  V30 END ATOM
M  V30 BEGIN BOND
M  V30 1 1 1 2
M  V30 2 2 2 3
M  V30 3 1 2 4
M  V30 4 1 4 5
M  V30 5 2 5 6
M  V30 6 1 6 7
M  V30 7 2 7 8
M  V30 8 1 7 9
M  V30 9 2 9 10
M  V30 10 1 10 11
M  V30 11 2 11 12
M  V30 12 1 12 13
M  V30 13 1 12 14
M  V30 14 2 14 15
M  V30 15 1 6 16
M  V30 16 1 16 17
M  V30 17 2 17 18
M  V30 18 1 18 19
M  V30 19 2 19 20
M  V30 20 1 20 21
M  V30 21 2 21 22
M  V30 22 1 22 5
M  V30 23 1 15 9
M  V30 24 1 22 17
M  V30 25 1 1 23
M  V30 26 1 1 24
M  V30 27 1 1 25
M  V30 28 1 4 26
M  V30 29 1 10 27
M  V30 30 1 11 28
M  V30 31 1 14 29
M  V30 32 1 15 30
M  V30 33 1 18 31
M  V30 34 1 19 32
M  V30 35 1 20 33
M  V30 36 1 21 34
M  V30 END BOND
M  V30 END CTAB
M  END
>  <Dataset>  (763) 
ChEMBL_Kinases

>  <Ligand_Instance>  (763) 
nan

>  <PDB_ID>  (763) 
nan

>  <Standardized_SMILES>  (763) 
CC(=O)Nc1c(C(=O)c2ccc(F)cc2)oc2ccccc12

>  <Name>  (763) 
nan

>  <Pocket>  (763) 
nan

>  <ATP_Site>  (763) 
nan

>  <Peripheral>  (763) 
nan

>  <Num_H_Atoms_ProtBoundConf>  (763) 
nan

>  <Num_Resolved_Atoms>  (763) 
nan

>  <Num_Not_Resolved_Atoms>  (763) 
nan

$$$$
CHEMBL1430766
     RDKit          3D

  0  0  0  0  0  0  0  0  0  0999 V3000
M  V30 BEGIN CTAB
M  V30 COUNTS 43 44 0 0 0
M  V30 BEGIN ATOM
M  V30 1 C -1.020455 -6.163321 0.700523 0
M  V30 2 C -0.509845 -4.943867 1.414050 0
M  V30 3 O -0.369899 -4.997698 2.681147 0
M  V30 4 O -0.192884 -3.787745 0.754793 0
M  V30 5 C 0.287451 -2.662539 1.486654 0
M  V30 6 C -0.581630 -1.492107 1.328764 0
M  V30 7 O -0.201433 -0.480419 1.952039 0
M  V30 8 N -1.759322 -1.408903 0.568191 0
M  V30 9 C -2.653892 -0.328949 0.351946 0
M  V30 10 S -2.080369 1.078889 -0.473928 0
M  V30 11 O -3.245505 2.061489 -0.561546 0
M  V30 12 O -1.794223 0.733188 -1.932879 0
M  V30 13 C -0.767031 1.934001 0.219109 0
M  V30 14 C 0.595229 1.827816 -0.094205 0
M  V30 15 C 1.563156 2.576792 0.540550 0
M  V30 16 C 1.215282 3.475917 1.527420 0
M  V30 17 C 2.218100 4.307487 2.242855 0
M  V30 18 C -0.108488 3.628934 1.883710 0
M  V30 19 C -1.048445 2.863203 1.227365 0
M  V30 20 C 1.603944 -2.325991 0.883974 0
M  V30 21 C 2.784784 -2.023796 1.518332 0
M  V30 22 C 3.923516 -1.732752 0.832974 0
M  V30 23 C 3.899072 -1.739403 -0.559567 0
M  V30 24 N 2.752458 -2.032844 -1.194212 0
M  V30 25 C 1.635598 -2.318297 -0.514992 0
M  V30 26 H -0.491983 -7.043660 1.069200 0
M  V30 27 H -0.812017 -6.025262 -0.383300 0
M  V30 28 H -2.103952 -6.309942 0.883579 0
M  V30 29 H 0.342046 -2.894287 2.562978 0
M  V30 30 H -1.950559 -2.352033 0.104070 0
M  V30 31 H -3.557017 -0.703971 -0.200001 0
M  V30 32 H -3.084086 -0.033394 1.353779 0
M  V30 33 H 0.801378 1.103140 -0.878552 0
M  V30 34 H 2.595019 2.457306 0.262600 0
M  V30 35 H 1.995128 5.397571 2.139133 0
M  V30 36 H 2.220917 4.099605 3.342003 0
M  V30 37 H 3.245789 4.128247 1.896743 0
M  V30 38 H -0.402515 4.326883 2.653347 0
M  V30 39 H -2.073021 3.015056 1.537885 0
M  V30 40 H 2.713566 -2.041704 2.606286 0
M  V30 41 H 4.832535 -1.500113 1.362743 0
M  V30 42 H 4.821062 -1.503753 -1.108066 0
M  V30 43 H 0.737505 -2.548152 -1.098706 0
M  V30 END ATOM
M  V30 BEGIN BOND
M  V30 1 1 1 2
M  V30 2 2 2 3
M  V30 3 1 2 4
M  V30 4 1 4 5
M  V30 5 1 5 6
M  V30 6 2 6 7
M  V30 7 1 6 8
M  V30 8 1 8 9
M  V30 9 1 9 10
M  V30 10 2 10 11
M  V30 11 2 10 12
M  V30 12 1 10 13
M  V30 13 2 13 14
M  V30 14 1 14 15
M  V30 15 2 15 16
M  V30 16 1 16 17
M  V30 17 1 16 18
M  V30 18 2 18 19
M  V30 19 1 5 20
M  V30 20 2 20 21
M  V30 21 1 21 22
M  V30 22 2 22 23
M  V30 23 1 23 24
M  V30 24 2 24 25
M  V30 25 1 19 13
M  V30 26 1 25 20
M  V30 27 1 1 26
M  V30 28 1 1 27
M  V30 29 1 1 28
M  V30 30 1 5 29
M  V30 31 1 8 30
M  V30 32 1 9 31
M  V30 33 1 9 32
M  V30 34 1 14 33
M  V30 35 1 15 34
M  V30 36 1 17 35
M  V30 37 1 17 36
M  V30 38 1 17 37
M  V30 39 1 18 38
M  V30 40 1 19 39
M  V30 41 1 21 40
M  V30 42 1 22 41
M  V30 43 1 23 42
M  V30 44 1 25 43
M  V30 END BOND
M  V30 END CTAB
M  END
>  <Dataset>  (764) 
ChEMBL_Kinases

>  <Ligand_Instance>  (764) 
nan

>  <PDB_ID>  (764) 
nan

>  <Standardized_SMILES>  (764) 
CC(=O)OC(C(=O)NCS(=O)(=O)c1ccc(C)cc1)c1cccnc1

>  <Name>  (764) 
nan

>  <Pocket>  (764) 
nan

>  <ATP_Site>  (764) 
nan

>  <Peripheral>  (764) 
nan

>  <Num_H_Atoms_ProtBoundConf>  (764) 
nan

>  <Num_Resolved_Atoms>  (764) 
nan

>  <Num_Not_Resolved_Atoms>  (764) 
nan

$$$$
CHEMBL1430859
     RDKit          3D

  0  0  0  0  0  0  0  0  0  0999 V3000
M  V30 BEGIN CTAB
M  V30 COUNTS 45 48 0 0 0
M  V30 BEGIN ATOM
M  V30 1 N -0.615105 -4.737735 3.582688 0
M  V30 2 C -0.316070 -3.841906 2.530074 0
M  V30 3 N 0.657163 -2.913626 2.645836 0
M  V30 4 C 0.924989 -2.067027 1.624052 0
M  V30 5 C 2.004594 -1.072652 1.810142 0
M  V30 6 N 1.485253 0.166165 2.350115 0
M  V30 7 C 0.539794 0.785873 1.482247 0
M  V30 8 C 0.851950 2.221967 1.125825 0
M  V30 9 C 2.302542 2.229036 0.782984 0
M  V30 10 C 2.748862 2.864341 -0.385684 0
M  V30 11 C 4.124969 2.828315 -0.636660 0
M  V30 12 C 5.024162 2.207423 0.203503 0
M  V30 13 C 4.603913 1.584964 1.344336 0
M  V30 14 C 3.248823 1.624062 1.585389 0
M  V30 15 C 2.578144 1.003629 2.780334 0
M  V30 16 N 0.182459 -2.199606 0.509524 0
M  V30 17 C -0.791737 -3.111587 0.362635 0
M  V30 18 N -1.410222 -3.021341 -0.912586 0
M  V30 19 C -2.608298 -2.222786 -0.970177 0
M  V30 20 C -3.086946 -1.633069 0.192677 0
M  V30 21 C -4.244213 -0.848137 0.221199 0
M  V30 22 C -4.923050 -0.669097 -0.984440 0
M  V30 23 C -4.461376 -1.248348 -2.152694 0
M  V30 24 C -3.313331 -2.022518 -2.160851 0
M  V30 25 N -1.034124 -3.939440 1.396999 0
M  V30 26 H -1.343154 -4.969876 4.297754 0
M  V30 27 H 0.230747 -5.366726 3.604488 0
M  V30 28 H 2.737907 -1.491226 2.519904 0
M  V30 29 H 2.570410 -0.891418 0.871896 0
M  V30 30 H -0.472786 0.780723 1.930792 0
M  V30 31 H 0.534590 0.241501 0.493251 0
M  V30 32 H 0.232579 2.453745 0.226757 0
M  V30 33 H 0.627962 2.908001 1.972661 0
M  V30 34 H 2.065183 3.357793 -1.061986 0
M  V30 35 H 4.495129 3.317099 -1.541810 0
M  V30 36 H 6.087269 2.199763 -0.023608 0
M  V30 37 H 5.225134 1.075011 2.060394 0
M  V30 38 H 2.132137 1.855136 3.324866 0
M  V30 39 H 3.297481 0.434999 3.369016 0
M  V30 40 H -1.112270 -3.459319 -1.832838 0
M  V30 41 H -2.583934 -1.748463 1.160739 0
M  V30 42 H -4.587060 -0.401593 1.162571 0
M  V30 43 H -5.822267 -0.065738 -0.983896 0
M  V30 44 H -5.016058 -1.087794 -3.078896 0
M  V30 45 H -2.943311 -2.481523 -3.079380 0
M  V30 END ATOM
M  V30 BEGIN BOND
M  V30 1 1 1 2
M  V30 2 2 2 3
M  V30 3 1 3 4
M  V30 4 1 4 5
M  V30 5 1 5 6
M  V30 6 1 6 7
M  V30 7 1 7 8
M  V30 8 1 8 9
M  V30 9 2 9 10
M  V30 10 1 10 11
M  V30 11 2 11 12
M  V30 12 1 12 13
M  V30 13 2 13 14
M  V30 14 1 14 15
M  V30 15 2 4 16
M  V30 16 1 16 17
M  V30 17 1 17 18
M  V30 18 1 18 19
M  V30 19 2 19 20
M  V30 20 1 20 21
M  V30 21 2 21 22
M  V30 22 1 22 23
M  V30 23 2 23 24
M  V30 24 2 17 25
M  V30 25 1 25 2
M  V30 26 1 15 6
M  V30 27 1 24 19
M  V30 28 1 14 9
M  V30 29 1 1 26
M  V30 30 1 1 27
M  V30 31 1 5 28
M  V30 32 1 5 29
M  V30 33 1 7 30
M  V30 34 1 7 31
M  V30 35 1 8 32
M  V30 36 1 8 33
M  V30 37 1 10 34
M  V30 38 1 11 35
M  V30 39 1 12 36
M  V30 40 1 13 37
M  V30 41 1 15 38
M  V30 42 1 15 39
M  V30 43 1 18 40
M  V30 44 1 20 41
M  V30 45 1 21 42
M  V30 46 1 22 43
M  V30 47 1 23 44
M  V30 48 1 24 45
M  V30 END BOND
M  V30 END CTAB
M  END
>  <Dataset>  (765) 
ChEMBL_Kinases

>  <Ligand_Instance>  (765) 
nan

>  <PDB_ID>  (765) 
nan

>  <Standardized_SMILES>  (765) 
Nc1nc(CN2CCc3ccccc3C2)nc(Nc2ccccc2)n1

>  <Name>  (765) 
nan

>  <Pocket>  (765) 
nan

>  <ATP_Site>  (765) 
nan

>  <Peripheral>  (765) 
nan

>  <Num_H_Atoms_ProtBoundConf>  (765) 
nan

>  <Num_Resolved_Atoms>  (765) 
nan

>  <Num_Not_Resolved_Atoms>  (765) 
nan

$$$$
CHEMBL143090
     RDKit          3D

  0  0  0  0  0  0  0  0  0  0999 V3000
M  V30 BEGIN CTAB
M  V30 COUNTS 17 17 0 0 0
M  V30 BEGIN ATOM
M  V30 1 O 0.415519 -1.165684 3.246236 0
M  V30 2 C 0.272401 -0.987697 2.022306 0
M  V30 3 C -0.650117 -1.930617 1.325225 0
M  V30 4 Cl -2.348742 -1.461430 1.587358 0
M  V30 5 C 0.999743 0.100904 1.384846 0
M  V30 6 C 1.769817 0.911036 2.217090 0
M  V30 7 C 2.518292 1.965463 1.739951 0
M  V30 8 C 2.462611 2.183526 0.356721 0
M  V30 9 Cl 3.400834 3.529342 -0.303173 0
M  V30 10 C 1.729026 1.431706 -0.531420 0
M  V30 11 C 1.005325 0.387739 0.043456 0
M  V30 12 H -0.447898 -2.954818 1.690558 0
M  V30 13 H -0.464958 -1.862986 0.225385 0
M  V30 14 H 1.809879 0.753046 3.296105 0
M  V30 15 H 3.121872 2.611820 2.384836 0
M  V30 16 H 1.710552 1.627316 -1.595530 0
M  V30 17 H 0.412795 -0.231611 -0.612923 0
M  V30 END ATOM
M  V30 BEGIN BOND
M  V30 1 2 1 2
M  V30 2 1 2 3
M  V30 3 1 3 4
M  V30 4 1 2 5
M  V30 5 2 5 6
M  V30 6 1 6 7
M  V30 7 2 7 8
M  V30 8 1 8 9
M  V30 9 1 8 10
M  V30 10 2 10 11
M  V30 11 1 11 5
M  V30 12 1 3 12
M  V30 13 1 3 13
M  V30 14 1 6 14
M  V30 15 1 7 15
M  V30 16 1 10 16
M  V30 17 1 11 17
M  V30 END BOND
M  V30 END CTAB
M  END
>  <Dataset>  (766) 
ChEMBL_Kinases

>  <Ligand_Instance>  (766) 
nan

>  <PDB_ID>  (766) 
nan

>  <Standardized_SMILES>  (766) 
O=C(CCl)c1ccc(Cl)cc1

>  <Name>  (766) 
nan

>  <Pocket>  (766) 
nan

>  <ATP_Site>  (766) 
nan

>  <Peripheral>  (766) 
nan

>  <Num_H_Atoms_ProtBoundConf>  (766) 
nan

>  <Num_Resolved_Atoms>  (766) 
nan

>  <Num_Not_Resolved_Atoms>  (766) 
nan

$$$$
CHEMBL1430987
     RDKit          3D

  0  0  0  0  0  0  0  0  0  0999 V3000
M  V30 BEGIN CTAB
M  V30 COUNTS 40 42 0 0 0
M  V30 BEGIN ATOM
M  V30 1 C 1.601164 -2.366369 3.743566 0
M  V30 2 C 1.326238 -1.619212 2.487379 0
M  V30 3 N 1.963995 -1.875821 1.342377 0
M  V30 4 C 1.781611 -1.315338 0.331999 0
M  V30 5 N 2.275892 -1.334304 -1.048546 0
M  V30 6 C 3.304840 -2.282844 -1.426345 0
M  V30 7 C 2.617340 -3.288572 -2.311924 0
M  V30 8 C 1.451449 -2.780935 -3.054690 0
M  V30 9 C 1.314281 -1.313688 -3.214563 0
M  V30 10 C 1.810628 -0.458332 -2.106609 0
M  V30 11 S 0.491918 -0.087532 0.700619 0
M  V30 12 C 0.377191 -0.610167 2.468733 0
M  V30 13 C -0.480640 -0.061734 3.471072 0
M  V30 14 O -0.312782 -0.599833 4.587462 0
M  V30 15 C -1.425300 0.980000 3.243132 0
M  V30 16 C -1.730675 1.748286 4.374029 0
M  V30 17 C -2.633138 2.782298 4.279803 0
M  V30 18 C -3.279259 3.123083 3.102195 0
M  V30 19 C -2.980170 2.367638 1.987148 0
M  V30 20 N -3.599200 2.651371 0.740124 0 CHG=1 VAL=4
M  V30 21 O -3.327698 1.967366 -0.266235 0
M  V30 22 O -4.503148 3.690243 0.654007 0 CHG=-1 VAL=1
M  V30 23 C -2.068833 1.320849 2.075265 0
M  V30 24 H 2.197232 -1.743214 4.463341 0
M  V30 25 H 0.680014 -2.691028 4.260533 0
M  V30 26 H 2.193713 -3.290533 3.600856 0
M  V30 27 H 3.678588 -2.753861 -0.518911 0
M  V30 28 H 4.112279 -1.803017 -2.018623 0
M  V30 29 H 2.362233 -4.183082 -1.671485 0
M  V30 30 H 3.374154 -3.671463 -3.026756 0
M  V30 31 H 0.534644 -3.136675 -2.510859 0
M  V30 32 H 1.362094 -3.252350 -4.067815 0
M  V30 33 H 1.888926 -1.015435 -4.139666 0
M  V30 34 H 0.266269 -1.034437 -3.457044 0
M  V30 35 H 0.993787 0.170911 -1.700345 0
M  V30 36 H 2.672484 0.183835 -2.382361 0
M  V30 37 H -1.336225 1.646761 5.388473 0
M  V30 38 H -2.924780 3.428954 5.117208 0
M  V30 39 H -3.988810 3.921668 2.987300 0
M  V30 40 H -1.838825 0.738068 1.221982 0
M  V30 END ATOM
M  V30 BEGIN BOND
M  V30 1 1 1 2
M  V30 2 1 2 3
M  V30 3 2 3 4
M  V30 4 1 4 5
M  V30 5 1 5 6
M  V30 6 1 6 7
M  V30 7 1 7 8
M  V30 8 1 8 9
M  V30 9 1 9 10
M  V30 10 1 4 11
M  V30 11 1 11 12
M  V30 12 1 12 13
M  V30 13 2 13 14
M  V30 14 1 13 15
M  V30 15 2 15 16
M  V30 16 1 16 17
M  V30 17 2 17 18
M  V30 18 1 18 19
M  V30 19 1 19 20
M  V30 20 2 20 21
M  V30 21 1 20 22
M  V30 22 2 19 23
M  V30 23 2 12 2
M  V30 24 1 23 15
M  V30 25 1 10 5
M  V30 26 1 1 24
M  V30 27 1 1 25
M  V30 28 1 1 26
M  V30 29 1 6 27
M  V30 30 1 6 28
M  V30 31 1 7 29
M  V30 32 1 7 30
M  V30 33 1 8 31
M  V30 34 1 8 32
M  V30 35 1 9 33
M  V30 36 1 9 34
M  V30 37 1 10 35
M  V30 38 1 10 36
M  V30 39 1 16 37
M  V30 40 1 17 38
M  V30 41 1 18 39
M  V30 42 1 23 40
M  V30 END BOND
M  V30 END CTAB
M  END
>  <Dataset>  (767) 
ChEMBL_Kinases

>  <Ligand_Instance>  (767) 
nan

>  <PDB_ID>  (767) 
nan

>  <Standardized_SMILES>  (767) 
Cc1nc(N2CCCCC2)sc1C(=O)c1cccc([N+](=O)[O-])c1

>  <Name>  (767) 
nan

>  <Pocket>  (767) 
nan

>  <ATP_Site>  (767) 
nan

>  <Peripheral>  (767) 
nan

>  <Num_H_Atoms_ProtBoundConf>  (767) 
nan

>  <Num_Resolved_Atoms>  (767) 
nan

>  <Num_Not_Resolved_Atoms>  (767) 
nan

$$$$
CHEMBL1430160
     RDKit          3D

  0  0  0  0  0  0  0  0  0  0999 V3000
M  V30 BEGIN CTAB
M  V30 COUNTS 65 69 0 0 0
M  V30 BEGIN ATOM
M  V30 1 C 5.224606 2.414245 5.363686 0
M  V30 2 O 4.157957 2.627661 4.474194 0
M  V30 3 C 4.136587 1.958663 3.265375 0
M  V30 4 C 5.103272 1.072503 2.845227 0
M  V30 5 C 5.097437 0.399750 1.647579 0
M  V30 6 C 4.021497 0.661394 0.833373 0
M  V30 7 N 3.918077 0.055627 -0.358925 0
M  V30 8 C 2.889001 0.284135 -1.174186 0
M  V30 9 O 2.808075 -0.337866 -2.396446 0
M  V30 10 C 1.818995 1.112361 -0.973179 0
M  V30 11 C 0.546730 1.485821 -1.602375 0
M  V30 12 N -0.571518 0.739725 -1.165431 0
M  V30 13 C -1.775076 1.651542 -1.324256 0
M  V30 14 C -2.973189 0.990638 -0.825983 0
M  V30 15 C -3.110111 1.175720 0.556533 0
M  V30 16 C -4.202912 0.666814 1.270996 0
M  V30 17 C -5.194883 -0.045280 0.618081 0
M  V30 18 C -6.355404 -0.574706 1.372368 0
M  V30 19 C -5.066894 -0.233508 -0.748278 0
M  V30 20 C -3.985903 0.275218 -1.427823 0
M  V30 21 C -0.975653 -0.474029 -1.724607 0
M  V30 22 C -0.090476 -1.593253 -1.933176 0
M  V30 23 N 0.406632 -1.885333 -3.174751 0
M  V30 24 N 1.194835 -2.938901 -3.103293 0
M  V30 25 N 1.206576 -3.317918 -1.844501 0
M  V30 26 N 0.435257 -2.516473 -1.121433 0
M  V30 27 C 0.225943 -2.663945 0.278600 0
M  V30 28 C -0.872524 -3.566760 0.699847 0
M  V30 29 C -0.704243 -4.997270 0.226878 0
M  V30 30 C -2.109283 -5.525223 0.555381 0
M  V30 31 C -2.909692 -4.235702 0.651641 0
M  V30 32 O -2.090515 -3.249643 0.114611 0
M  V30 33 C 1.956212 1.733035 0.281075 0
M  V30 34 C 3.011244 1.531146 1.171763 0
M  V30 35 C 3.092280 2.164438 2.389561 0
M  V30 36 H 5.481716 1.322471 5.416055 0
M  V30 37 H 6.158942 2.951633 5.043575 0
M  V30 38 H 4.949078 2.714592 6.407093 0
M  V30 39 H 5.949768 0.874375 3.493753 0
M  V30 40 H 5.863641 -0.284764 1.346840 0
M  V30 41 H 3.288270 -1.134654 -2.726010 0
M  V30 42 H 0.660910 1.438795 -2.727872 0
M  V30 43 H 0.343615 2.569275 -1.353556 0
M  V30 44 H -1.568595 2.616096 -0.865969 0
M  V30 45 H -1.815313 1.785391 -2.411859 0
M  V30 46 H -2.415023 1.714938 1.217228 0
M  V30 47 H -4.327252 0.794962 2.333803 0
M  V30 48 H -7.209010 -0.594618 0.639496 0
M  V30 49 H -6.677031 0.158064 2.140702 0
M  V30 50 H -6.235489 -1.599072 1.737968 0
M  V30 51 H -5.804953 -0.779492 -1.309984 0
M  V30 52 H -3.841299 0.164485 -2.485649 0
M  V30 53 H -1.533430 -0.198061 -2.692328 0
M  V30 54 H -1.875438 -0.815826 -1.085357 0
M  V30 55 H 0.043610 -1.680592 0.792923 0
M  V30 56 H 1.170208 -3.076624 0.743329 0
M  V30 57 H -0.994478 -3.614758 1.802918 0
M  V30 58 H 0.007008 -5.590016 0.833912 0
M  V30 59 H -0.477681 -5.070684 -0.855251 0
M  V30 60 H -2.501280 -6.191396 -0.212201 0
M  V30 61 H -2.111707 -5.963321 1.589861 0
M  V30 62 H -3.201822 -3.984495 1.668977 0
M  V30 63 H -3.825240 -4.278588 0.030493 0
M  V30 64 H 1.239752 2.445708 0.688262 0
M  V30 65 H 2.314519 2.853744 2.685516 0
M  V30 END ATOM
M  V30 BEGIN BOND
M  V30 1 1 1 2
M  V30 2 1 2 3
M  V30 3 2 3 4
M  V30 4 1 4 5
M  V30 5 2 5 6
M  V30 6 1 6 7
M  V30 7 2 7 8
M  V30 8 1 8 9
M  V30 9 1 8 10
M  V30 10 1 10 11
M  V30 11 1 11 12
M  V30 12 1 12 13
M  V30 13 1 13 14
M  V30 14 2 14 15
M  V30 15 1 15 16
M  V30 16 2 16 17
M  V30 17 1 17 18
M  V30 18 1 17 19
M  V30 19 2 19 20
M  V30 20 1 12 21
M  V30 21 1 21 22
M  V30 22 2 22 23
M  V30 23 1 23 24
M  V30 24 2 24 25
M  V30 25 1 25 26
M  V30 26 1 26 27
M  V30 27 1 27 28
M  V30 28 1 28 29
M  V30 29 1 29 30
M  V30 30 1 30 31
M  V30 31 1 31 32
M  V30 32 2 10 33
M  V30 33 1 33 34
M  V30 34 2 34 35
M  V30 35 1 35 3
M  V30 36 1 34 6
M  V30 37 1 20 14
M  V30 38 1 26 22
M  V30 39 1 32 28
M  V30 40 1 1 36
M  V30 41 1 1 37
M  V30 42 1 1 38
M  V30 43 1 4 39
M  V30 44 1 5 40
M  V30 45 1 9 41
M  V30 46 1 11 42
M  V30 47 1 11 43
M  V30 48 1 13 44
M  V30 49 1 13 45
M  V30 50 1 15 46
M  V30 51 1 16 47
M  V30 52 1 18 48
M  V30 53 1 18 49
M  V30 54 1 18 50
M  V30 55 1 19 51
M  V30 56 1 20 52
M  V30 57 1 21 53
M  V30 58 1 21 54
M  V30 59 1 27 55
M  V30 60 1 27 56
M  V30 61 1 28 57
M  V30 62 1 29 58
M  V30 63 1 29 59
M  V30 64 1 30 60
M  V30 65 1 30 61
M  V30 66 1 31 62
M  V30 67 1 31 63
M  V30 68 1 33 64
M  V30 69 1 35 65
M  V30 END BOND
M  V30 END CTAB
M  END
>  <Dataset>  (768) 
ChEMBL_Kinases

>  <Ligand_Instance>  (768) 
nan

>  <PDB_ID>  (768) 
nan

>  <Standardized_SMILES>  (768) 
COc1ccc2nc(O)c(CN(Cc3ccc(C)cc3)Cc3nnnn3CC3CCCO3)cc2c1

>  <Name>  (768) 
nan

>  <Pocket>  (768) 
nan

>  <ATP_Site>  (768) 
nan

>  <Peripheral>  (768) 
nan

>  <Num_H_Atoms_ProtBoundConf>  (768) 
nan

>  <Num_Resolved_Atoms>  (768) 
nan

>  <Num_Not_Resolved_Atoms>  (768) 
nan

$$$$
CHEMBL1435590
     RDKit          3D

  0  0  0  0  0  0  0  0  0  0999 V3000
M  V30 BEGIN CTAB
M  V30 COUNTS 34 36 0 0 0
M  V30 BEGIN ATOM
M  V30 1 C -0.936002 -2.572862 4.287202 0
M  V30 2 O 0.218600 -2.680085 3.536896 0
M  V30 3 C -0.120814 -3.068449 2.250123 0
M  V30 4 C 1.052562 -3.220729 1.331888 0
M  V30 5 C 1.854663 -1.975820 1.128782 0
M  V30 6 N 1.092793 -0.891351 0.550108 0
M  V30 7 C 1.074631 -0.841962 -0.813818 0
M  V30 8 O 1.690701 -1.706073 -1.492394 0
M  V30 9 C 0.412219 0.112426 -1.546829 0
M  V30 10 C 0.429847 0.111101 -2.926224 0
M  V30 11 C -0.273746 1.122069 -3.547645 0
M  V30 12 C -0.975599 2.108477 -2.885464 0
M  V30 13 C -0.973108 2.081150 -1.503071 0
M  V30 14 C -0.281118 1.086335 -0.861246 0
M  V30 15 N -0.261892 1.036130 0.474162 0
M  V30 16 C -0.817184 1.813737 1.381482 0
M  V30 17 S -1.825844 3.251307 1.305765 0
M  V30 18 N -0.501272 1.346117 2.603202 0
M  V30 19 N 0.263630 0.258573 2.477019 0
M  V30 20 C 0.401059 0.082075 1.142180 0
M  V30 21 H -0.746296 -2.261849 5.343669 0
M  V30 22 H -1.506130 -3.529562 4.332373 0
M  V30 23 H -1.646556 -1.820001 3.862932 0
M  V30 24 H -0.630433 -4.045871 2.330365 0
M  V30 25 H -0.871428 -2.357292 1.796541 0
M  V30 26 H 0.645402 -3.513178 0.335641 0
M  V30 27 H 1.685219 -4.071084 1.653774 0
M  V30 28 H 2.689761 -2.241925 0.440410 0
M  V30 29 H 2.367342 -1.648601 2.066955 0
M  V30 30 H 0.967845 -0.644336 -3.473678 0
M  V30 31 H -0.266519 1.130663 -4.644088 0
M  V30 32 H -1.498554 2.862107 -3.475734 0
M  V30 33 H -1.533682 2.870410 -1.058758 0
M  V30 34 H -1.181707 4.274870 2.055724 0
M  V30 END ATOM
M  V30 BEGIN BOND
M  V30 1 1 1 2
M  V30 2 1 2 3
M  V30 3 1 3 4
M  V30 4 1 4 5
M  V30 5 1 5 6
M  V30 6 1 6 7
M  V30 7 2 7 8
M  V30 8 1 7 9
M  V30 9 2 9 10
M  V30 10 1 10 11
M  V30 11 2 11 12
M  V30 12 1 12 13
M  V30 13 2 13 14
M  V30 14 1 14 15
M  V30 15 1 15 16
M  V30 16 1 16 17
M  V30 17 2 16 18
M  V30 18 1 18 19
M  V30 19 2 19 20
M  V30 20 1 20 6
M  V30 21 1 14 9
M  V30 22 1 20 15
M  V30 23 1 1 21
M  V30 24 1 1 22
M  V30 25 1 1 23
M  V30 26 1 3 24
M  V30 27 1 3 25
M  V30 28 1 4 26
M  V30 29 1 4 27
M  V30 30 1 5 28
M  V30 31 1 5 29
M  V30 32 1 10 30
M  V30 33 1 11 31
M  V30 34 1 12 32
M  V30 35 1 13 33
M  V30 36 1 17 34
M  V30 END BOND
M  V30 END CTAB
M  END
>  <Dataset>  (769) 
ChEMBL_Kinases

>  <Ligand_Instance>  (769) 
nan

>  <PDB_ID>  (769) 
nan

>  <Standardized_SMILES>  (769) 
COCCCn1c(=O)c2ccccc2n2c(S)nnc12

>  <Name>  (769) 
nan

>  <Pocket>  (769) 
nan

>  <ATP_Site>  (769) 
nan

>  <Peripheral>  (769) 
nan

>  <Num_H_Atoms_ProtBoundConf>  (769) 
nan

>  <Num_Resolved_Atoms>  (769) 
nan

>  <Num_Not_Resolved_Atoms>  (769) 
nan

$$$$
CHEMBL1435422
     RDKit          3D

  0  0  0  0  0  0  0  0  0  0999 V3000
M  V30 BEGIN CTAB
M  V30 COUNTS 37 40 0 0 0
M  V30 BEGIN ATOM
M  V30 1 C -2.184417 -0.503988 1.998637 0
M  V30 2 N -2.161162 -1.537300 0.984075 0
M  V30 3 C -2.118922 -2.824735 1.596886 0
M  V30 4 C -1.016476 -3.655909 1.002236 0
M  V30 5 C 0.252618 -2.906797 1.099890 0
M  V30 6 C 1.434277 -3.370595 1.665193 0
M  V30 7 C 2.570844 -2.581156 1.706994 0
M  V30 8 C 2.462428 -1.319715 1.160157 0
M  V30 9 C 1.316264 -0.829484 0.595557 0
M  V30 10 C 0.223967 -1.644556 0.577873 0
M  V30 11 C -1.134413 -1.326964 0.005830 0 CFG=2
M  V30 12 C -1.233300 0.053131 -0.542351 0
M  V30 13 C -0.001582 0.832557 -0.478487 0
M  V30 14 C -0.129582 2.097753 -1.028303 0
M  V30 15 C 0.976688 2.956482 -1.030035 0
M  V30 16 C 2.215296 2.582265 -0.493614 0
M  V30 17 O 3.247844 3.504943 -0.543977 0
M  V30 18 C 2.320927 1.320891 0.047588 0
M  V30 19 O 3.550090 1.042856 0.542226 0
M  V30 20 C 1.227652 0.502048 0.037229 0
M  V30 21 H -1.275595 0.124646 1.860751 0
M  V30 22 H -2.155703 -0.974048 3.013665 0
M  V30 23 H -3.125488 0.081211 1.952722 0
M  V30 24 H -3.091417 -3.359704 1.436412 0
M  V30 25 H -2.032535 -2.724106 2.693303 0
M  V30 26 H -1.236617 -3.986711 -0.025400 0
M  V30 27 H -0.939106 -4.566449 1.653576 0
M  V30 28 H 1.441021 -4.376188 2.075854 0
M  V30 29 H 3.442693 -3.018502 2.162574 0
M  V30 30 H 3.389340 -0.801107 1.245530 0
M  V30 31 H -1.351849 -2.071349 -0.819162 0
M  V30 32 H -1.524974 -0.003446 -1.619212 0
M  V30 33 H -2.026363 0.659738 -0.035279 0
M  V30 34 H -1.031508 2.502912 -1.472406 0
M  V30 35 H 0.882597 3.952014 -1.460587 0
M  V30 36 H 4.078257 3.274053 -0.013175 0
M  V30 37 H 4.335853 0.938886 -0.109799 0
M  V30 END ATOM
M  V30 BEGIN BOND
M  V30 1 1 1 2
M  V30 2 1 2 3
M  V30 3 1 3 4
M  V30 4 1 4 5
M  V30 5 2 5 6
M  V30 6 1 6 7
M  V30 7 2 7 8
M  V30 8 1 8 9
M  V30 9 2 9 10
M  V30 10 1 10 11
M  V30 11 1 11 12
M  V30 12 1 12 13
M  V30 13 2 13 14
M  V30 14 1 14 15
M  V30 15 2 15 16
M  V30 16 1 16 17
M  V30 17 1 16 18
M  V30 18 1 18 19
M  V30 19 2 18 20
M  V30 20 1 11 2
M  V30 21 1 20 13
M  V30 22 1 10 5
M  V30 23 1 20 9
M  V30 24 1 1 21
M  V30 25 1 1 22
M  V30 26 1 1 23
M  V30 27 1 3 24
M  V30 28 1 3 25
M  V30 29 1 4 26
M  V30 30 1 4 27
M  V30 31 1 6 28
M  V30 32 1 7 29
M  V30 33 1 8 30
M  V30 34 1 11 31 CFG=3
M  V30 35 1 12 32
M  V30 36 1 12 33
M  V30 37 1 14 34
M  V30 38 1 15 35
M  V30 39 1 17 36
M  V30 40 1 19 37
M  V30 END BOND
M  V30 END CTAB
M  END
>  <Dataset>  (770) 
ChEMBL_Kinases

>  <Ligand_Instance>  (770) 
nan

>  <PDB_ID>  (770) 
nan

>  <Standardized_SMILES>  (770) 
CN1CCc2cccc3c2[C@@H]1Cc1ccc(O)c(O)c1-3

>  <Name>  (770) 
nan

>  <Pocket>  (770) 
nan

>  <ATP_Site>  (770) 
nan

>  <Peripheral>  (770) 
nan

>  <Num_H_Atoms_ProtBoundConf>  (770) 
nan

>  <Num_Resolved_Atoms>  (770) 
nan

>  <Num_Not_Resolved_Atoms>  (770) 
nan

$$$$
CHEMBL1435409
     RDKit          3D

  0  0  0  0  0  0  0  0  0  0999 V3000
M  V30 BEGIN CTAB
M  V30 COUNTS 36 39 0 0 0
M  V30 BEGIN ATOM
M  V30 1 C -0.122928 -2.934483 -0.158970 0
M  V30 2 C 1.112301 -3.053855 0.623217 0
M  V30 3 C 1.612714 -4.240545 1.117948 0
M  V30 4 C 2.789440 -4.328108 1.859000 0
M  V30 5 C 3.447740 -3.136048 2.079667 0
M  V30 6 C 2.971679 -1.934837 1.597721 0
M  V30 7 C 1.787922 -1.873623 0.856440 0
M  V30 8 C 1.416983 -0.532014 0.417539 0
M  V30 9 C 2.439425 0.257240 -0.123215 0
M  V30 10 C 2.268477 1.549614 -0.588457 0
M  V30 11 C 1.012477 2.110577 -0.521255 0
M  V30 12 N 0.803004 3.354943 -0.958994 0
M  V30 13 C -0.428025 3.877940 -0.882664 0
M  V30 14 N -1.452757 3.173148 -0.374340 0
M  V30 15 C -1.266937 1.904483 0.078266 0
M  V30 16 N -2.375896 1.172712 0.616303 0
M  V30 17 C -3.191004 1.119529 1.682098 0
M  V30 18 C -4.079833 0.081188 1.488469 0
M  V30 19 N -3.804344 -0.499596 0.300173 0
M  V30 20 C -2.749206 0.177522 -0.238236 0
M  V30 21 C -0.001818 1.348400 0.007082 0
M  V30 22 C 0.170225 0.059782 0.470613 0
M  V30 23 H -0.118358 -2.149230 -0.914406 0
M  V30 24 H -1.017519 -2.896221 0.528291 0
M  V30 25 H -0.258151 -3.906527 -0.718285 0
M  V30 26 H 1.057099 -5.148384 0.916333 0
M  V30 27 H 3.107715 -5.285229 2.205283 0
M  V30 28 H 4.367656 -3.174112 2.654240 0
M  V30 29 H 3.566691 -1.062034 1.829131 0
M  V30 30 H 3.449600 -0.156853 -0.191713 0
M  V30 31 H 3.119044 2.083151 -0.990308 0
M  V30 32 H -0.591681 4.903036 -1.245293 0
M  V30 33 H -2.956950 1.888197 2.418003 0
M  V30 34 H -4.807229 -0.081221 2.280622 0
M  V30 35 H -2.460307 -0.235866 -1.213773 0
M  V30 36 H -0.603584 -0.559548 0.888455 0
M  V30 END ATOM
M  V30 BEGIN BOND
M  V30 1 1 1 2
M  V30 2 2 2 3
M  V30 3 1 3 4
M  V30 4 2 4 5
M  V30 5 1 5 6
M  V30 6 2 6 7
M  V30 7 1 7 8
M  V30 8 2 8 9
M  V30 9 1 9 10
M  V30 10 2 10 11
M  V30 11 1 11 12
M  V30 12 2 12 13
M  V30 13 1 13 14
M  V30 14 2 14 15
M  V30 15 1 15 16
M  V30 16 1 16 17
M  V30 17 2 17 18
M  V30 18 1 18 19
M  V30 19 2 19 20
M  V30 20 1 15 21
M  V30 21 2 21 22
M  V30 22 1 7 2
M  V30 23 1 22 8
M  V30 24 1 21 11
M  V30 25 1 20 16
M  V30 26 1 1 23
M  V30 27 1 1 24
M  V30 28 1 1 25
M  V30 29 1 3 26
M  V30 30 1 4 27
M  V30 31 1 5 28
M  V30 32 1 6 29
M  V30 33 1 9 30
M  V30 34 1 10 31
M  V30 35 1 13 32
M  V30 36 1 17 33
M  V30 37 1 18 34
M  V30 38 1 20 35
M  V30 39 1 22 36
M  V30 END BOND
M  V30 END CTAB
M  END
>  <Dataset>  (771) 
ChEMBL_Kinases

>  <Ligand_Instance>  (771) 
nan

>  <PDB_ID>  (771) 
nan

>  <Standardized_SMILES>  (771) 
Cc1ccccc1-c1ccc2ncnc(-n3ccnc3)c2c1

>  <Name>  (771) 
nan

>  <Pocket>  (771) 
nan

>  <ATP_Site>  (771) 
nan

>  <Peripheral>  (771) 
nan

>  <Num_H_Atoms_ProtBoundConf>  (771) 
nan

>  <Num_Resolved_Atoms>  (771) 
nan

>  <Num_Not_Resolved_Atoms>  (771) 
nan

$$$$
CHEMBL1435200
     RDKit          3D

  0  0  0  0  0  0  0  0  0  0999 V3000
M  V30 BEGIN CTAB
M  V30 COUNTS 60 63 0 0 0
M  V30 BEGIN ATOM
M  V30 1 C 1.092236 -3.924384 -2.643295 0
M  V30 2 C 1.856262 -3.411279 -1.862235 0
M  V30 3 C 2.834460 -2.757801 -0.898548 0 CFG=1
M  V30 4 O 3.695006 -3.760617 -0.613559 0
M  V30 5 C 4.812113 -3.983080 0.060487 0
M  V30 6 C 5.517706 -5.283130 0.183979 0
M  V30 7 O 5.416365 -3.122785 0.680669 0
M  V30 8 C 3.376779 -1.552466 -1.596233 0
M  V30 9 C 2.793031 -0.360889 -0.866284 0
M  V30 10 C 1.494992 -0.942479 -0.446119 0 CFG=2
M  V30 11 C 0.526282 -0.114441 0.232242 0 CFG=2
M  V30 12 C 0.952873 0.832813 1.293448 0
M  V30 13 C -0.192468 1.840316 1.461253 0
M  V30 14 C -1.507608 1.152930 1.274678 0
M  V30 15 C -2.527839 2.008411 1.473853 0
M  V30 16 C -3.853975 1.337080 1.291097 0 CFG=1
M  V30 17 O -4.831886 2.360073 1.280001 0
M  V30 18 C -5.936531 2.403451 2.086376 0
M  V30 19 C -6.950875 3.491174 2.055308 0
M  V30 20 O -5.977762 1.393506 2.861216 0
M  V30 21 C -3.811291 0.779867 -0.137010 0
M  V30 22 C -2.684727 -0.213468 -0.327404 0
M  V30 23 C -1.865627 -0.271242 0.917537 0 CFG=1
M  V30 24 C -0.579329 -0.991521 0.814504 0 CFG=1
M  V30 25 C -0.601800 -2.281771 0.053229 0
M  V30 26 C 0.664406 -3.061870 0.340902 0
M  V30 27 C 1.922716 -2.242197 0.199940 0 CFG=1
M  V30 28 C 2.674743 -2.092471 1.455958 0
M  V30 29 H 0.425901 -4.352309 -3.325961 0
M  V30 30 H 6.495458 -5.153453 -0.360569 0
M  V30 31 H 4.902986 -6.086689 -0.251210 0
M  V30 32 H 5.706687 -5.568053 1.239771 0
M  V30 33 H 4.465680 -1.516578 -1.691244 0
M  V30 34 H 2.991861 -1.482959 -2.633970 0
M  V30 35 H 2.584417 0.473927 -1.588288 0
M  V30 36 H 3.431469 -0.001496 -0.047379 0
M  V30 37 H 1.017529 -1.287903 -1.414735 0
M  V30 38 H -0.017287 0.511941 -0.542563 0
M  V30 39 H 1.075313 0.389871 2.300784 0
M  V30 40 H 1.843387 1.439604 1.017943 0
M  V30 41 H -0.037023 2.646337 0.714913 0
M  V30 42 H -0.202178 2.252242 2.478537 0
M  V30 43 H -2.442802 3.065743 1.736709 0
M  V30 44 H -4.063481 0.556204 2.025079 0
M  V30 45 H -7.900243 3.052910 2.457497 0
M  V30 46 H -6.696007 4.329573 2.731836 0
M  V30 47 H -7.169775 3.834325 1.031064 0
M  V30 48 H -4.789433 0.353854 -0.435185 0
M  V30 49 H -3.675677 1.699227 -0.779041 0
M  V30 50 H -2.074654 0.159124 -1.184639 0
M  V30 51 H -3.059938 -1.204123 -0.643563 0
M  V30 52 H -2.469313 -0.718975 1.733019 0
M  V30 53 H -0.277904 -1.217845 1.857908 0
M  V30 54 H -1.434557 -2.896430 0.467568 0
M  V30 55 H -0.781310 -2.171404 -1.017390 0
M  V30 56 H 0.633678 -3.982910 -0.233516 0
M  V30 57 H 0.636092 -3.389161 1.422472 0
M  V30 58 H 3.521469 -1.411313 1.432252 0
M  V30 59 H 1.994168 -1.812619 2.336615 0
M  V30 60 H 3.013908 -3.087357 1.804164 0
M  V30 END ATOM
M  V30 BEGIN BOND
M  V30 1 3 1 2
M  V30 2 1 3 2 CFG=3
M  V30 3 1 3 4
M  V30 4 1 4 5
M  V30 5 1 5 6
M  V30 6 2 5 7
M  V30 7 1 3 8
M  V30 8 1 8 9
M  V30 9 1 9 10
M  V30 10 1 10 11
M  V30 11 1 11 12
M  V30 12 1 12 13
M  V30 13 1 13 14
M  V30 14 2 14 15
M  V30 15 1 15 16
M  V30 16 1 16 17
M  V30 17 1 17 18
M  V30 18 1 18 19
M  V30 19 2 18 20
M  V30 20 1 16 21
M  V30 21 1 21 22
M  V30 22 1 22 23
M  V30 23 1 23 24
M  V30 24 1 24 25
M  V30 25 1 25 26
M  V30 26 1 26 27
M  V30 27 1 27 28 CFG=1
M  V30 28 1 27 3
M  V30 29 1 27 10
M  V30 30 1 24 11
M  V30 31 1 23 14
M  V30 32 1 1 29
M  V30 33 1 6 30
M  V30 34 1 6 31
M  V30 35 1 6 32
M  V30 36 1 8 33
M  V30 37 1 8 34
M  V30 38 1 9 35
M  V30 39 1 9 36
M  V30 40 1 10 37 CFG=3
M  V30 41 1 11 38 CFG=3
M  V30 42 1 12 39
M  V30 43 1 12 40
M  V30 44 1 13 41
M  V30 45 1 13 42
M  V30 46 1 15 43
M  V30 47 1 16 44 CFG=1
M  V30 48 1 19 45
M  V30 49 1 19 46
M  V30 50 1 19 47
M  V30 51 1 21 48
M  V30 52 1 21 49
M  V30 53 1 22 50
M  V30 54 1 22 51
M  V30 55 1 23 52 CFG=1
M  V30 56 1 24 53 CFG=1
M  V30 57 1 25 54
M  V30 58 1 25 55
M  V30 59 1 26 56
M  V30 60 1 26 57
M  V30 61 1 28 58
M  V30 62 1 28 59
M  V30 63 1 28 60
M  V30 END BOND
M  V30 END CTAB
M  END
>  <Dataset>  (772) 
ChEMBL_Kinases

>  <Ligand_Instance>  (772) 
nan

>  <PDB_ID>  (772) 
nan

>  <Standardized_SMILES>  (772) 
C#C[C@@]1(OC(C)=O)CC[C@@H]2[C@@H]3CCC4=C[C@@H](OC(C)=O)CC[C@H]4[C@H]3CC[C@]21C

>  <Name>  (772) 
nan

>  <Pocket>  (772) 
nan

>  <ATP_Site>  (772) 
nan

>  <Peripheral>  (772) 
nan

>  <Num_H_Atoms_ProtBoundConf>  (772) 
nan

>  <Num_Resolved_Atoms>  (772) 
nan

>  <Num_Not_Resolved_Atoms>  (772) 
nan

$$$$
CHEMBL1435151
     RDKit          3D

  0  0  0  0  0  0  0  0  0  0999 V3000
M  V30 BEGIN CTAB
M  V30 COUNTS 41 44 0 0 0
M  V30 BEGIN ATOM
M  V30 1 C 1.865197 -5.880027 -0.966023 0
M  V30 2 C 2.621712 -4.782739 -0.312002 0
M  V30 3 C 4.082626 -4.799531 -0.239730 0
M  V30 4 S 4.491223 -3.203881 0.684529 0
M  V30 5 C 2.772531 -2.728460 0.856713 0
M  V30 6 C 2.471568 -1.477628 1.549301 0
M  V30 7 N 2.386832 -0.299994 0.827897 0
M  V30 8 C 2.301245 0.894705 0.095877 0
M  V30 9 N 3.176862 1.537402 -0.693424 0
M  V30 10 C 2.905043 2.681594 -1.313142 0
M  V30 11 N 1.718301 3.259885 -1.175922 0
M  V30 12 C 0.782230 2.697642 -0.412648 0
M  V30 13 C -0.403739 3.396005 -0.354749 0
M  V30 14 C -1.417737 2.869111 0.417856 0
M  V30 15 C -1.217836 1.685442 1.094168 0
M  V30 16 C -2.284233 1.119341 1.913560 0
M  V30 17 C -2.509939 -0.251035 1.754579 0
M  V30 18 C -3.507403 -0.911372 2.481643 0
M  V30 19 C -4.237292 -0.137072 3.347188 0
M  V30 20 C -4.061938 1.225702 3.550046 0
M  V30 21 C -3.059287 1.827620 2.802599 0
M  V30 22 Cl -2.760197 3.535597 2.988205 0
M  V30 23 C 0.004983 1.065827 0.969723 0
M  V30 24 C 1.074140 1.511895 0.225207 0
M  V30 25 C 2.060814 -3.704262 0.265397 0
M  V30 26 H 1.791583 -5.786439 -2.047010 0
M  V30 27 H 2.402506 -6.839186 -0.759422 0
M  V30 28 H 0.885834 -6.003348 -0.434521 0
M  V30 29 H 4.655025 -5.722639 -0.729060 0
M  V30 30 H 3.147161 -1.414209 2.460815 0
M  V30 31 H 1.458316 -1.631475 2.073465 0
M  V30 32 H 3.398346 -0.528191 0.538442 0
M  V30 33 H 3.699269 3.093277 -1.918060 0
M  V30 34 H -0.569465 4.318139 -0.876352 0
M  V30 35 H -2.362361 3.388466 0.483689 0
M  V30 36 H -1.935082 -0.870024 1.069755 0
M  V30 37 H -3.697095 -1.976158 2.370876 0
M  V30 38 H -5.002454 -0.664572 3.899549 0
M  V30 39 H -4.663271 1.796099 4.245406 0
M  V30 40 H 0.093573 0.148610 1.522146 0
M  V30 41 H 0.995245 -3.536164 0.298517 0
M  V30 END ATOM
M  V30 BEGIN BOND
M  V30 1 1 1 2
M  V30 2 2 2 3
M  V30 3 1 3 4
M  V30 4 1 4 5
M  V30 5 1 5 6
M  V30 6 1 6 7
M  V30 7 1 7 8
M  V30 8 2 8 9
M  V30 9 1 9 10
M  V30 10 2 10 11
M  V30 11 1 11 12
M  V30 12 2 12 13
M  V30 13 1 13 14
M  V30 14 2 14 15
M  V30 15 1 15 16
M  V30 16 2 16 17
M  V30 17 1 17 18
M  V30 18 2 18 19
M  V30 19 1 19 20
M  V30 20 2 20 21
M  V30 21 1 21 22
M  V30 22 1 15 23
M  V30 23 2 23 24
M  V30 24 2 5 25
M  V30 25 1 25 2
M  V30 26 1 24 8
M  V30 27 1 24 12
M  V30 28 1 21 16
M  V30 29 1 1 26
M  V30 30 1 1 27
M  V30 31 1 1 28
M  V30 32 1 3 29
M  V30 33 1 6 30
M  V30 34 1 6 31
M  V30 35 1 7 32
M  V30 36 1 10 33
M  V30 37 1 13 34
M  V30 38 1 14 35
M  V30 39 1 17 36
M  V30 40 1 18 37
M  V30 41 1 19 38
M  V30 42 1 20 39
M  V30 43 1 23 40
M  V30 44 1 25 41
M  V30 END BOND
M  V30 END CTAB
M  END
>  <Dataset>  (773) 
ChEMBL_Kinases

>  <Ligand_Instance>  (773) 
nan

>  <PDB_ID>  (773) 
nan

>  <Standardized_SMILES>  (773) 
Cc1csc(CNc2ncnc3ccc(-c4ccccc4Cl)cc23)c1

>  <Name>  (773) 
nan

>  <Pocket>  (773) 
nan

>  <ATP_Site>  (773) 
nan

>  <Peripheral>  (773) 
nan

>  <Num_H_Atoms_ProtBoundConf>  (773) 
nan

>  <Num_Resolved_Atoms>  (773) 
nan

>  <Num_Not_Resolved_Atoms>  (773) 
nan

$$$$
CHEMBL1435086
     RDKit          3D

  0  0  0  0  0  0  0  0  0  0999 V3000
M  V30 BEGIN CTAB
M  V30 COUNTS 44 47 0 0 0
M  V30 BEGIN ATOM
M  V30 1 C 0.018244 -5.401333 3.245137 0
M  V30 2 C 1.254502 -5.321753 2.637585 0
M  V30 3 C 1.464310 -4.208680 1.829665 0
M  V30 4 C 0.514231 -3.232315 1.631700 0
M  V30 5 C 0.767527 -2.147507 0.822417 0
M  V30 6 N 2.000823 -1.972548 0.146549 0
M  V30 7 C 2.281769 -0.841199 -0.699912 0
M  V30 8 C 2.261140 0.436391 0.103176 0
M  V30 9 N 2.543128 1.586726 -0.695465 0
M  V30 10 C 1.549610 1.945004 -1.653947 0
M  V30 11 C 0.403230 2.755581 -1.098676 0
M  V30 12 O 0.929629 3.891348 -0.482187 0
M  V30 13 C 1.780583 3.534216 0.549934 0
M  V30 14 C 2.941879 2.699647 0.102973 0
M  V30 15 N -0.238662 -1.265418 0.709751 0
M  V30 16 C -1.431383 -1.385816 1.323852 0
M  V30 17 C -2.507008 -0.410921 1.180315 0
M  V30 18 C -2.638234 0.980953 1.257119 0
M  V30 19 C -3.977368 1.252951 1.009801 0
M  V30 20 O -4.612874 0.119961 0.798999 0
M  V30 21 C -3.771969 -0.891555 0.892069 0
M  V30 22 N -1.625067 -2.469036 2.105584 0
M  V30 23 C -0.682845 -3.409201 2.284001 0
M  V30 24 C -0.992416 -4.472960 3.105371 0
M  V30 25 H -0.182913 -6.264016 3.887845 0
M  V30 26 H 2.014283 -6.088680 2.786938 0
M  V30 27 H 2.430532 -4.167467 1.367838 0
M  V30 28 H 2.788161 -2.621100 0.197502 0
M  V30 29 H 3.198402 -0.921288 -1.286212 0
M  V30 30 H 1.441228 -0.805190 -1.457022 0
M  V30 31 H 3.079457 0.367837 0.874418 0
M  V30 32 H 1.315916 0.504468 0.640505 0
M  V30 33 H 1.182638 1.062248 -2.212036 0
M  V30 34 H 2.062812 2.611985 -2.402991 0
M  V30 35 H -0.199654 3.105603 -1.964950 0
M  V30 36 H -0.258219 2.204585 -0.428232 0
M  V30 37 H 1.206488 3.025016 1.361121 0
M  V30 38 H 2.199986 4.482215 0.973303 0
M  V30 39 H 3.426520 2.295238 1.030613 0
M  V30 40 H 3.651209 3.363967 -0.437045 0
M  V30 41 H -1.723836 1.521683 1.480753 0
M  V30 42 H -4.252457 2.295545 1.032222 0
M  V30 43 H -4.272770 -1.831587 0.722474 0
M  V30 44 H -1.942679 -4.584415 3.604734 0
M  V30 END ATOM
M  V30 BEGIN BOND
M  V30 1 2 1 2
M  V30 2 1 2 3
M  V30 3 2 3 4
M  V30 4 1 4 5
M  V30 5 1 5 6
M  V30 6 1 6 7
M  V30 7 1 7 8
M  V30 8 1 8 9
M  V30 9 1 9 10
M  V30 10 1 10 11
M  V30 11 1 11 12
M  V30 12 1 12 13
M  V30 13 1 13 14
M  V30 14 2 5 15
M  V30 15 1 15 16
M  V30 16 1 16 17
M  V30 17 1 17 18
M  V30 18 2 18 19
M  V30 19 1 19 20
M  V30 20 1 20 21
M  V30 21 2 16 22
M  V30 22 1 22 23
M  V30 23 2 23 24
M  V30 24 1 24 1
M  V30 25 1 23 4
M  V30 26 1 14 9
M  V30 27 2 21 17
M  V30 28 1 1 25
M  V30 29 1 2 26
M  V30 30 1 3 27
M  V30 31 1 6 28
M  V30 32 1 7 29
M  V30 33 1 7 30
M  V30 34 1 8 31
M  V30 35 1 8 32
M  V30 36 1 10 33
M  V30 37 1 10 34
M  V30 38 1 11 35
M  V30 39 1 11 36
M  V30 40 1 13 37
M  V30 41 1 13 38
M  V30 42 1 14 39
M  V30 43 1 14 40
M  V30 44 1 18 41
M  V30 45 1 19 42
M  V30 46 1 21 43
M  V30 47 1 24 44
M  V30 END BOND
M  V30 END CTAB
M  END
>  <Dataset>  (774) 
ChEMBL_Kinases

>  <Ligand_Instance>  (774) 
nan

>  <PDB_ID>  (774) 
nan

>  <Standardized_SMILES>  (774) 
c1ccc2c(NCCN3CCOCC3)nc(-c3ccoc3)nc2c1

>  <Name>  (774) 
nan

>  <Pocket>  (774) 
nan

>  <ATP_Site>  (774) 
nan

>  <Peripheral>  (774) 
nan

>  <Num_H_Atoms_ProtBoundConf>  (774) 
nan

>  <Num_Resolved_Atoms>  (774) 
nan

>  <Num_Not_Resolved_Atoms>  (774) 
nan

$$$$
CHEMBL1435077
     RDKit          3D

  0  0  0  0  0  0  0  0  0  0999 V3000
M  V30 BEGIN CTAB
M  V30 COUNTS 38 40 0 0 0
M  V30 BEGIN ATOM
M  V30 1 C 0.162680 -4.730072 3.799766 0
M  V30 2 O 0.143789 -3.514884 3.127269 0
M  V30 3 C 1.189479 -2.647398 2.926956 0
M  V30 4 C 2.477935 -2.843449 3.374675 0
M  V30 5 C 3.481416 -1.931736 3.139256 0
M  V30 6 C 3.142033 -0.801034 2.428957 0
M  V30 7 C 1.881924 -0.531061 1.948082 0
M  V30 8 C 1.648035 0.701958 1.207400 0
M  V30 9 N 2.666735 1.558332 1.022339 0
M  V30 10 C 2.593936 2.708095 0.373866 0
M  V30 11 C 1.357284 3.018429 -0.139157 0
M  V30 12 C 0.248961 2.186882 0.007282 0
M  V30 13 N -0.994654 2.581381 -0.546171 0
M  V30 14 C -2.250294 1.862288 -0.544708 0
M  V30 15 C -2.180705 0.566640 -1.283624 0
M  V30 16 C -1.881552 -0.692102 -0.808142 0
M  V30 17 C -1.855859 -1.777271 -1.626907 0
M  V30 18 C -2.134357 -1.645275 -2.983864 0
M  V30 19 N -2.432844 -0.413593 -3.478606 0
M  V30 20 C -2.456538 0.666116 -2.654329 0
M  V30 21 N 0.458451 1.048559 0.687471 0
M  V30 22 C 0.932004 -1.490165 2.223842 0
M  V30 23 H -0.076325 -5.605309 3.157084 0
M  V30 24 H 1.079062 -4.835983 4.390160 0
M  V30 25 H -0.695881 -4.699006 4.533361 0
M  V30 26 H 2.712257 -3.723326 3.919240 0
M  V30 27 H 4.508373 -2.097472 3.501378 0
M  V30 28 H 3.951477 -0.092868 2.253871 0
M  V30 29 H 3.411082 3.381192 0.233056 0
M  V30 30 H 1.254134 3.969006 -0.686932 0
M  V30 31 H -1.024257 3.528001 -1.029152 0
M  V30 32 H -2.573331 1.646521 0.519922 0
M  V30 33 H -3.067523 2.463422 -0.967335 0
M  V30 34 H -1.685144 -0.709981 0.231349 0
M  V30 35 H -1.616140 -2.744430 -1.210964 0
M  V30 36 H -2.126534 -2.462745 -3.662940 0
M  V30 37 H -2.705995 1.587487 -3.162561 0
M  V30 38 H -0.068395 -1.306283 1.860990 0
M  V30 END ATOM
M  V30 BEGIN BOND
M  V30 1 1 1 2
M  V30 2 1 2 3
M  V30 3 2 3 4
M  V30 4 1 4 5
M  V30 5 2 5 6
M  V30 6 1 6 7
M  V30 7 1 7 8
M  V30 8 2 8 9
M  V30 9 1 9 10
M  V30 10 2 10 11
M  V30 11 1 11 12
M  V30 12 1 12 13
M  V30 13 1 13 14
M  V30 14 1 14 15
M  V30 15 2 15 16
M  V30 16 1 16 17
M  V30 17 2 17 18
M  V30 18 1 18 19
M  V30 19 2 19 20
M  V30 20 2 12 21
M  V30 21 2 7 22
M  V30 22 1 22 3
M  V30 23 1 21 8
M  V30 24 1 20 15
M  V30 25 1 1 23
M  V30 26 1 1 24
M  V30 27 1 1 25
M  V30 28 1 4 26
M  V30 29 1 5 27
M  V30 30 1 6 28
M  V30 31 1 10 29
M  V30 32 1 11 30
M  V30 33 1 13 31
M  V30 34 1 14 32
M  V30 35 1 14 33
M  V30 36 1 16 34
M  V30 37 1 17 35
M  V30 38 1 18 36
M  V30 39 1 20 37
M  V30 40 1 22 38
M  V30 END BOND
M  V30 END CTAB
M  END
>  <Dataset>  (775) 
ChEMBL_Kinases

>  <Ligand_Instance>  (775) 
nan

>  <PDB_ID>  (775) 
nan

>  <Standardized_SMILES>  (775) 
COc1cccc(-c2nccc(NCc3cccnc3)n2)c1

>  <Name>  (775) 
nan

>  <Pocket>  (775) 
nan

>  <ATP_Site>  (775) 
nan

>  <Peripheral>  (775) 
nan

>  <Num_H_Atoms_ProtBoundConf>  (775) 
nan

>  <Num_Resolved_Atoms>  (775) 
nan

>  <Num_Not_Resolved_Atoms>  (775) 
nan

$$$$
CHEMBL1435032
     RDKit          3D

  0  0  0  0  0  0  0  0  0  0999 V3000
M  V30 BEGIN CTAB
M  V30 COUNTS 34 36 0 0 0
M  V30 BEGIN ATOM
M  V30 1 C -2.393722 -0.827411 2.326178 0
M  V30 2 C -1.553745 -1.577855 3.119917 0
M  V30 3 C -0.739074 -2.565890 2.610810 0
M  V30 4 C -0.748792 -2.830238 1.257970 0
M  V30 5 C 0.003858 -3.809084 0.471802 0
M  V30 6 N 1.271833 -3.333202 -0.034918 0
M  V30 7 C 0.978948 -2.181572 -0.853930 0
M  V30 8 C 1.048851 -0.978648 -0.137810 0
M  V30 9 C 0.805522 0.235369 -0.722640 0
M  V30 10 C 0.868367 1.517306 -0.035490 0
M  V30 11 C 1.173372 1.693136 1.296309 0
M  V30 12 C 1.234322 2.925079 1.930366 0
M  V30 13 C 0.964702 4.019533 1.135971 0
M  V30 14 N 0.660215 3.903676 -0.177005 0
M  V30 15 C 0.615312 2.676749 -0.741456 0
M  V30 16 N 0.489995 0.196702 -2.048881 0
M  V30 17 C 0.426343 -0.964257 -2.723697 0
M  V30 18 N 0.662400 -2.171021 -2.167883 0
M  V30 19 C -1.603863 -2.064835 0.457199 0
M  V30 20 C -2.418185 -1.076503 0.970360 0
M  V30 21 H -3.020916 -0.057088 2.765128 0
M  V30 22 H -1.502655 -1.415487 4.191970 0
M  V30 23 H -0.054039 -3.200113 3.152112 0
M  V30 24 H -0.611718 -4.285134 -0.307654 0
M  V30 25 H 0.277867 -4.645463 1.182930 0
M  V30 26 H 2.274972 -3.618944 0.055601 0
M  V30 27 H 1.299594 -0.943712 0.917050 0
M  V30 28 H 1.378096 0.828874 1.890428 0
M  V30 29 H 1.478929 2.980476 2.975516 0
M  V30 30 H 0.994667 5.015089 1.566209 0
M  V30 31 H 0.368178 2.579843 -1.805935 0
M  V30 32 H 0.168952 -0.924332 -3.779281 0
M  V30 33 H -1.712961 -2.168622 -0.633727 0
M  V30 34 H -3.087229 -0.475902 0.354722 0
M  V30 END ATOM
M  V30 BEGIN BOND
M  V30 1 2 1 2
M  V30 2 1 2 3
M  V30 3 2 3 4
M  V30 4 1 4 5
M  V30 5 1 5 6
M  V30 6 1 6 7
M  V30 7 2 7 8
M  V30 8 1 8 9
M  V30 9 1 9 10
M  V30 10 2 10 11
M  V30 11 1 11 12
M  V30 12 2 12 13
M  V30 13 1 13 14
M  V30 14 2 14 15
M  V30 15 2 9 16
M  V30 16 1 16 17
M  V30 17 2 17 18
M  V30 18 1 4 19
M  V30 19 2 19 20
M  V30 20 1 20 1
M  V30 21 1 18 7
M  V30 22 1 15 10
M  V30 23 1 1 21
M  V30 24 1 2 22
M  V30 25 1 3 23
M  V30 26 1 5 24
M  V30 27 1 5 25
M  V30 28 1 6 26
M  V30 29 1 8 27
M  V30 30 1 11 28
M  V30 31 1 12 29
M  V30 32 1 13 30
M  V30 33 1 15 31
M  V30 34 1 17 32
M  V30 35 1 19 33
M  V30 36 1 20 34
M  V30 END BOND
M  V30 END CTAB
M  END
>  <Dataset>  (776) 
ChEMBL_Kinases

>  <Ligand_Instance>  (776) 
nan

>  <PDB_ID>  (776) 
nan

>  <Standardized_SMILES>  (776) 
c1ccc(CNc2cc(-c3cccnc3)ncn2)cc1

>  <Name>  (776) 
nan

>  <Pocket>  (776) 
nan

>  <ATP_Site>  (776) 
nan

>  <Peripheral>  (776) 
nan

>  <Num_H_Atoms_ProtBoundConf>  (776) 
nan

>  <Num_Resolved_Atoms>  (776) 
nan

>  <Num_Not_Resolved_Atoms>  (776) 
nan

$$$$
CHEMBL1434833
     RDKit          3D

  0  0  0  0  0  0  0  0  0  0999 V3000
M  V30 BEGIN CTAB
M  V30 COUNTS 42 45 0 0 0
M  V30 BEGIN ATOM
M  V30 1 C 3.155092 -3.367426 4.641004 0
M  V30 2 O 4.072646 -3.047766 3.611728 0
M  V30 3 C 3.645607 -2.166620 2.626704 0
M  V30 4 N 4.522699 -1.855811 1.635356 0
M  V30 5 C 4.146401 -0.997052 0.650374 0
M  V30 6 C 2.884115 -0.480038 0.706290 0
M  V30 7 N 2.494442 0.383366 -0.276936 0
M  V30 8 C 1.267308 0.914575 -0.263149 0
M  V30 9 C 0.897975 1.827169 -1.329084 0
M  V30 10 C 1.545790 2.296130 -2.401540 0
M  V30 11 C 0.976854 3.158905 -3.271606 0
M  V30 12 C -0.361538 3.520643 -2.947425 0
M  V30 13 S -0.700276 2.582694 -1.401895 0
M  V30 14 C 0.337490 0.638002 0.712670 0
M  V30 15 O -0.821001 1.126769 0.744425 0
M  V30 16 N 0.759877 -0.224614 1.674087 0
M  V30 17 C -0.104598 -0.617885 2.768905 0
M  V30 18 C -0.895567 -1.866985 2.406219 0
M  V30 19 C -1.748131 -1.687357 1.228682 0
M  V30 20 C -3.044826 -1.232714 1.347466 0
M  V30 21 C -3.794397 -1.091355 0.174945 0
M  V30 22 C -3.275193 -1.390910 -1.073538 0
M  V30 23 C -1.960736 -1.847483 -1.150039 0
M  V30 24 C -1.173406 -2.004705 -0.007818 0
M  V30 25 C 1.985025 -0.777130 1.691918 0
M  V30 26 N 2.398009 -1.619680 2.630874 0
M  V30 27 H 2.324475 -4.000348 4.257016 0
M  V30 28 H 3.619118 -3.743664 5.560810 0
M  V30 29 H 2.651567 -2.396367 4.916116 0
M  V30 30 H 4.882045 -0.782825 -0.115076 0
M  V30 31 H 2.574973 1.931944 -2.528557 0
M  V30 32 H 1.458986 3.564808 -4.150636 0
M  V30 33 H -0.954331 4.257076 -3.622951 0
M  V30 34 H 0.465310 -0.749457 3.696152 0
M  V30 35 H -0.808788 0.232026 2.982388 0
M  V30 36 H -0.180540 -2.697426 2.236453 0
M  V30 37 H -1.458202 -2.151182 3.319267 0
M  V30 38 H -3.437601 -1.002552 2.328106 0
M  V30 39 H -4.829573 -0.730266 0.250781 0
M  V30 40 H -3.884288 -1.270479 -1.969360 0
M  V30 41 H -1.610977 -2.064441 -2.145945 0
M  V30 42 H -0.156942 -2.362115 -0.111470 0
M  V30 END ATOM
M  V30 BEGIN BOND
M  V30 1 1 1 2
M  V30 2 1 2 3
M  V30 3 2 3 4
M  V30 4 1 4 5
M  V30 5 2 5 6
M  V30 6 1 6 7
M  V30 7 2 7 8
M  V30 8 1 8 9
M  V30 9 2 9 10
M  V30 10 1 10 11
M  V30 11 2 11 12
M  V30 12 1 12 13
M  V30 13 1 8 14
M  V30 14 2 14 15
M  V30 15 1 14 16
M  V30 16 1 16 17
M  V30 17 1 17 18
M  V30 18 1 18 19
M  V30 19 2 19 20
M  V30 20 1 20 21
M  V30 21 2 21 22
M  V30 22 1 22 23
M  V30 23 2 23 24
M  V30 24 1 16 25
M  V30 25 2 25 26
M  V30 26 1 26 3
M  V30 27 1 25 6
M  V30 28 1 13 9
M  V30 29 1 24 19
M  V30 30 1 1 27
M  V30 31 1 1 28
M  V30 32 1 1 29
M  V30 33 1 5 30
M  V30 34 1 10 31
M  V30 35 1 11 32
M  V30 36 1 12 33
M  V30 37 1 17 34
M  V30 38 1 17 35
M  V30 39 1 18 36
M  V30 40 1 18 37
M  V30 41 1 20 38
M  V30 42 1 21 39
M  V30 43 1 22 40
M  V30 44 1 23 41
M  V30 45 1 24 42
M  V30 END BOND
M  V30 END CTAB
M  END
>  <Dataset>  (777) 
ChEMBL_Kinases

>  <Ligand_Instance>  (777) 
nan

>  <PDB_ID>  (777) 
nan

>  <Standardized_SMILES>  (777) 
COc1ncc2nc(-c3cccs3)c(=O)n(CCc3ccccc3)c2n1

>  <Name>  (777) 
nan

>  <Pocket>  (777) 
nan

>  <ATP_Site>  (777) 
nan

>  <Peripheral>  (777) 
nan

>  <Num_H_Atoms_ProtBoundConf>  (777) 
nan

>  <Num_Resolved_Atoms>  (777) 
nan

>  <Num_Not_Resolved_Atoms>  (777) 
nan

$$$$
CHEMBL1434801
     RDKit          3D

  0  0  0  0  0  0  0  0  0  0999 V3000
M  V30 BEGIN CTAB
M  V30 COUNTS 52 56 0 0 0
M  V30 BEGIN ATOM
M  V30 1 O 1.819626 -3.836034 0.271876 0
M  V30 2 C 1.496118 -2.732379 0.730768 0
M  V30 3 C 2.532148 -1.868269 0.967692 0
M  V30 4 C 3.961055 -2.249988 0.675895 0
M  V30 5 C 4.109323 -2.130761 -0.848502 0
M  V30 6 C 3.822886 -0.719163 -1.268687 0
M  V30 7 C 2.548515 -0.330708 -1.601675 0
M  V30 8 C 2.368369 0.983114 -1.973247 0
M  V30 9 C 3.369985 1.935251 -2.035460 0
M  V30 10 C 4.628202 1.474549 -1.686581 0
M  V30 11 C 4.891703 0.176196 -1.303965 0
M  V30 12 N 2.254378 -0.630759 1.474122 0
M  V30 13 C 0.978749 -0.290025 1.726980 0
M  V30 14 C 0.714089 0.944963 2.227529 0
M  V30 15 N -0.591996 1.260705 2.470321 0
M  V30 16 C -1.576282 0.378159 2.221346 0
M  V30 17 N -2.962669 0.610424 2.435266 0
M  V30 18 C -4.007029 -0.367718 2.193139 0
M  V30 19 C -4.768274 0.162967 0.971119 0
M  V30 20 N -5.455895 1.345131 1.399355 0
M  V30 21 C -4.628614 2.353811 1.983500 0
M  V30 22 C -3.563212 1.828803 2.916397 0
M  V30 23 N -1.266428 -0.828979 1.727509 0
M  V30 24 C -0.007501 -1.215886 1.461501 0
M  V30 25 N 0.202064 -2.461586 0.958666 0
M  V30 26 C -0.881523 -3.388897 0.702811 0
M  V30 27 C -0.958871 -4.151740 -0.563241 0
M  V30 28 C -0.743944 -4.841457 0.801278 0
M  V30 29 H 4.174076 -3.288423 0.956725 0
M  V30 30 H 4.606196 -1.514497 1.180757 0
M  V30 31 H 3.373459 -2.802272 -1.334725 0
M  V30 32 H 5.113594 -2.450835 -1.189192 0
M  V30 33 H 1.709546 -1.004086 -1.582585 0
M  V30 34 H 1.368954 1.324883 -2.243854 0
M  V30 35 H 3.216311 2.948786 -2.324748 0
M  V30 36 H 5.471123 2.150862 -1.706227 0
M  V30 37 H 5.885398 -0.175360 -1.031982 0
M  V30 38 H 1.484992 1.672320 2.436334 0
M  V30 39 H -4.689948 -0.463140 3.062523 0
M  V30 40 H -3.626234 -1.373272 1.936419 0
M  V30 41 H -5.520115 -0.563901 0.616574 0
M  V30 42 H -4.013633 0.413049 0.204536 0
M  V30 43 H -5.905192 1.763984 0.544421 0
M  V30 44 H -5.278655 3.052561 2.548059 0
M  V30 45 H -4.186952 2.973158 1.153356 0
M  V30 46 H -3.958555 1.741063 3.948195 0
M  V30 47 H -2.755365 2.616233 2.946102 0
M  V30 48 H -1.878542 -2.979732 1.045128 0
M  V30 49 H -1.965803 -4.305576 -1.053112 0
M  V30 50 H -0.133070 -4.212441 -1.274228 0
M  V30 51 H 0.205433 -5.385787 0.919872 0
M  V30 52 H -1.617649 -5.443844 1.189631 0
M  V30 END ATOM
M  V30 BEGIN BOND
M  V30 1 2 1 2
M  V30 2 1 2 3
M  V30 3 1 3 4
M  V30 4 1 4 5
M  V30 5 1 5 6
M  V30 6 2 6 7
M  V30 7 1 7 8
M  V30 8 2 8 9
M  V30 9 1 9 10
M  V30 10 2 10 11
M  V30 11 2 3 12
M  V30 12 1 12 13
M  V30 13 2 13 14
M  V30 14 1 14 15
M  V30 15 2 15 16
M  V30 16 1 16 17
M  V30 17 1 17 18
M  V30 18 1 18 19
M  V30 19 1 19 20
M  V30 20 1 20 21
M  V30 21 1 21 22
M  V30 22 1 16 23
M  V30 23 2 23 24
M  V30 24 1 24 25
M  V30 25 1 25 26
M  V30 26 1 26 27
M  V30 27 1 27 28
M  V30 28 1 25 2
M  V30 29 1 28 26
M  V30 30 1 11 6
M  V30 31 1 24 13
M  V30 32 1 22 17
M  V30 33 1 4 29
M  V30 34 1 4 30
M  V30 35 1 5 31
M  V30 36 1 5 32
M  V30 37 1 7 33
M  V30 38 1 8 34
M  V30 39 1 9 35
M  V30 40 1 10 36
M  V30 41 1 11 37
M  V30 42 1 14 38
M  V30 43 1 18 39
M  V30 44 1 18 40
M  V30 45 1 19 41
M  V30 46 1 19 42
M  V30 47 1 20 43
M  V30 48 1 21 44
M  V30 49 1 21 45
M  V30 50 1 22 46
M  V30 51 1 22 47
M  V30 52 1 26 48
M  V30 53 1 27 49
M  V30 54 1 27 50
M  V30 55 1 28 51
M  V30 56 1 28 52
M  V30 END BOND
M  V30 END CTAB
M  END
>  <Dataset>  (778) 
ChEMBL_Kinases

>  <Ligand_Instance>  (778) 
nan

>  <PDB_ID>  (778) 
nan

>  <Standardized_SMILES>  (778) 
O=c1c(CCc2ccccc2)nc2cnc(N3CCNCC3)nc2n1C1CC1

>  <Name>  (778) 
nan

>  <Pocket>  (778) 
nan

>  <ATP_Site>  (778) 
nan

>  <Peripheral>  (778) 
nan

>  <Num_H_Atoms_ProtBoundConf>  (778) 
nan

>  <Num_Resolved_Atoms>  (778) 
nan

>  <Num_Not_Resolved_Atoms>  (778) 
nan

$$$$
CHEMBL1434729
     RDKit          3D

  0  0  0  0  0  0  0  0  0  0999 V3000
M  V30 BEGIN CTAB
M  V30 COUNTS 48 51 0 0 0
M  V30 BEGIN ATOM
M  V30 1 C -5.140112 -4.095933 0.406653 0
M  V30 2 N -3.776721 -3.745061 0.002128 0
M  V30 3 C -2.800140 -3.670745 1.039085 0
M  V30 4 O -3.024704 -3.882830 2.262161 0
M  V30 5 C -1.380170 -3.332291 0.819994 0 CFG=2
M  V30 6 O -1.129400 -3.097707 -0.529030 0
M  V30 7 C 0.232476 -3.306457 -0.717347 0 CFG=1
M  V30 8 N 1.005396 -2.108145 -0.504780 0
M  V30 9 C 2.318732 -2.143256 -0.225493 0
M  V30 10 N 2.732535 -0.870384 -0.086713 0
M  V30 11 C 1.664277 -0.077579 -0.283656 0
M  V30 12 C 1.579521 1.318893 -0.246539 0
M  V30 13 N 2.709096 2.132964 0.025191 0
M  V30 14 C 2.798301 3.576292 0.102123 0
M  V30 15 C 1.918115 4.090773 1.184211 0
M  V30 16 C 2.515058 4.134580 2.451852 0
M  V30 17 C 1.879761 4.583260 3.592515 0
M  V30 18 C 0.572854 5.020233 3.495878 0
M  V30 19 C -0.024597 4.981684 2.253055 0
M  V30 20 I -2.015314 5.623871 1.988076 0
M  V30 21 C 0.612468 4.533180 1.115687 0
M  V30 22 N 0.350278 1.798464 -0.490279 0
M  V30 23 C -0.727381 1.043459 -0.750451 0
M  V30 24 N -0.626574 -0.296049 -0.781885 0
M  V30 25 C 0.561996 -0.838689 -0.549331 0
M  V30 26 C 0.640794 -4.425335 0.186745 0 CFG=2
M  V30 27 O 0.625155 -5.646983 -0.470456 0
M  V30 28 C -0.442126 -4.437525 1.243864 0 CFG=2
M  V30 29 O -1.052661 -5.671140 1.331309 0
M  V30 30 H -5.575402 -3.199925 0.894153 0
M  V30 31 H -5.691554 -4.367254 -0.524618 0
M  V30 32 H -5.176678 -4.970602 1.067635 0
M  V30 33 H -3.445255 -3.542531 -0.974856 0
M  V30 34 H -1.105524 -2.407765 1.367001 0
M  V30 35 H 0.358444 -3.642653 -1.768684 0
M  V30 36 H 3.049874 -2.929017 -0.100325 0
M  V30 37 H 3.610582 1.601699 0.194712 0
M  V30 38 H 2.391938 4.035829 -0.838906 0
M  V30 39 H 3.822443 3.901690 0.283274 0
M  V30 40 H 3.551727 3.803320 2.605670 0
M  V30 41 H 2.387405 4.596059 4.547579 0
M  V30 42 H 0.044915 5.378187 4.369440 0
M  V30 43 H 0.189359 4.491245 0.134189 0
M  V30 44 H -1.602925 1.664224 -0.913022 0
M  V30 45 H 1.626681 -4.200395 0.620411 0
M  V30 46 H 0.869326 -6.356747 0.182331 0
M  V30 47 H 0.027275 -4.220820 2.213289 0
M  V30 48 H -1.165520 -5.993302 2.270886 0
M  V30 END ATOM
M  V30 BEGIN BOND
M  V30 1 1 1 2
M  V30 2 1 2 3
M  V30 3 2 3 4
M  V30 4 1 3 5
M  V30 5 1 5 6
M  V30 6 1 6 7
M  V30 7 1 7 8
M  V30 8 1 8 9
M  V30 9 2 9 10
M  V30 10 1 10 11
M  V30 11 2 11 12
M  V30 12 1 12 13
M  V30 13 1 13 14
M  V30 14 1 14 15
M  V30 15 2 15 16
M  V30 16 1 16 17
M  V30 17 2 17 18
M  V30 18 1 18 19
M  V30 19 1 19 20
M  V30 20 2 19 21
M  V30 21 1 12 22
M  V30 22 2 22 23
M  V30 23 1 23 24
M  V30 24 2 24 25
M  V30 25 1 7 26
M  V30 26 1 26 27
M  V30 27 1 26 28
M  V30 28 1 28 29
M  V30 29 1 28 5
M  V30 30 1 25 8
M  V30 31 1 25 11
M  V30 32 1 21 15
M  V30 33 1 1 30
M  V30 34 1 1 31
M  V30 35 1 1 32
M  V30 36 1 2 33
M  V30 37 1 5 34 CFG=1
M  V30 38 1 7 35 CFG=3
M  V30 39 1 9 36
M  V30 40 1 13 37
M  V30 41 1 14 38
M  V30 42 1 14 39
M  V30 43 1 16 40
M  V30 44 1 17 41
M  V30 45 1 18 42
M  V30 46 1 21 43
M  V30 47 1 23 44
M  V30 48 1 26 45 CFG=1
M  V30 49 1 27 46
M  V30 50 1 28 47 CFG=1
M  V30 51 1 29 48
M  V30 END BOND
M  V30 END CTAB
M  END
>  <Dataset>  (779) 
ChEMBL_Kinases

>  <Ligand_Instance>  (779) 
nan

>  <PDB_ID>  (779) 
nan

>  <Standardized_SMILES>  (779) 
CNC(=O)[C@@H]1O[C@@H](n2cnc3c(NCc4cccc(I)c4)ncnc32)[C@H](O)[C@@H]1O

>  <Name>  (779) 
nan

>  <Pocket>  (779) 
nan

>  <ATP_Site>  (779) 
nan

>  <Peripheral>  (779) 
nan

>  <Num_H_Atoms_ProtBoundConf>  (779) 
nan

>  <Num_Resolved_Atoms>  (779) 
nan

>  <Num_Not_Resolved_Atoms>  (779) 
nan

$$$$
CHEMBL1434460
     RDKit          3D

  0  0  0  0  0  0  0  0  0  0999 V3000
M  V30 BEGIN CTAB
M  V30 COUNTS 34 36 0 0 0
M  V30 BEGIN ATOM
M  V30 1 C 1.590195 -0.589696 3.943602 0
M  V30 2 C 1.169522 -1.594718 2.902635 0
M  V30 3 N 0.775132 -2.871159 3.120923 0
M  V30 4 O 0.491336 -3.440643 2.010017 0
M  V30 5 C 0.668766 -2.617574 1.008391 0
M  V30 6 C 0.466281 -2.846137 -0.429341 0
M  V30 7 C 1.104342 -1.413980 1.515380 0
M  V30 8 C 1.472852 -0.130995 0.949729 0
M  V30 9 C 2.827323 -0.037525 0.627872 0
M  V30 10 N 3.361455 1.086098 0.096853 0
M  V30 11 C 2.521370 2.131464 -0.114047 0
M  V30 12 N 1.211477 2.093405 0.177574 0
M  V30 13 C 0.661462 0.982886 0.707343 0
M  V30 14 N -0.681826 0.730686 1.080853 0
M  V30 15 C -1.622543 0.291716 0.094911 0
M  V30 16 C -2.925513 -0.024044 0.383516 0
M  V30 17 C -3.826497 -0.439182 -0.584364 0
M  V30 18 C -3.405735 -0.545370 -1.911800 0
M  V30 19 C -2.099384 -0.231671 -2.217965 0
M  V30 20 C -1.220107 0.178896 -1.240728 0
M  V30 21 H 2.465629 -0.036155 3.574704 0
M  V30 22 H 1.884605 -1.147575 4.855480 0
M  V30 23 H 0.744336 0.063615 4.233267 0
M  V30 24 H -0.601805 -3.162618 -0.587605 0
M  V30 25 H 0.697663 -1.983904 -1.049117 0
M  V30 26 H 1.081142 -3.748660 -0.690918 0
M  V30 27 H 3.532116 -0.826077 0.772129 0
M  V30 28 H 2.792917 3.097329 -0.530878 0
M  V30 29 H -1.047497 0.841303 2.041294 0
M  V30 30 H -3.252797 0.056511 1.408369 0
M  V30 31 H -4.839775 -0.667871 -0.261213 0
M  V30 32 H -4.095184 -0.863948 -2.662573 0
M  V30 33 H -1.707470 -0.295253 -3.244119 0
M  V30 34 H -0.195396 0.417363 -1.521931 0
M  V30 END ATOM
M  V30 BEGIN BOND
M  V30 1 1 1 2
M  V30 2 2 2 3
M  V30 3 1 3 4
M  V30 4 1 4 5
M  V30 5 1 5 6
M  V30 6 2 5 7
M  V30 7 1 7 8
M  V30 8 2 8 9
M  V30 9 1 9 10
M  V30 10 2 10 11
M  V30 11 1 11 12
M  V30 12 2 12 13
M  V30 13 1 13 14
M  V30 14 1 14 15
M  V30 15 2 15 16
M  V30 16 1 16 17
M  V30 17 2 17 18
M  V30 18 1 18 19
M  V30 19 2 19 20
M  V30 20 1 7 2
M  V30 21 1 13 8
M  V30 22 1 20 15
M  V30 23 1 1 21
M  V30 24 1 1 22
M  V30 25 1 1 23
M  V30 26 1 6 24
M  V30 27 1 6 25
M  V30 28 1 6 26
M  V30 29 1 9 27
M  V30 30 1 11 28
M  V30 31 1 14 29
M  V30 32 1 16 30
M  V30 33 1 17 31
M  V30 34 1 18 32
M  V30 35 1 19 33
M  V30 36 1 20 34
M  V30 END BOND
M  V30 END CTAB
M  END
>  <Dataset>  (780) 
ChEMBL_Kinases

>  <Ligand_Instance>  (780) 
nan

>  <PDB_ID>  (780) 
nan

>  <Standardized_SMILES>  (780) 
Cc1noc(C)c1-c1cncnc1Nc1ccccc1

>  <Name>  (780) 
nan

>  <Pocket>  (780) 
nan

>  <ATP_Site>  (780) 
nan

>  <Peripheral>  (780) 
nan

>  <Num_H_Atoms_ProtBoundConf>  (780) 
nan

>  <Num_Resolved_Atoms>  (780) 
nan

>  <Num_Not_Resolved_Atoms>  (780) 
nan

$$$$
CHEMBL1434441
     RDKit          3D

  0  0  0  0  0  0  0  0  0  0999 V3000
M  V30 BEGIN CTAB
M  V30 COUNTS 88 88 0 0 0
M  V30 BEGIN ATOM
M  V30 1 C 2.464136 -5.823797 4.824418 0
M  V30 2 C 1.989004 -7.036238 4.087939 0
M  V30 3 C 0.477642 -7.148090 4.075091 0
M  V30 4 C -0.127335 -5.924186 3.394652 0
M  V30 5 C -1.633750 -6.119726 3.423647 0
M  V30 6 C -2.268162 -4.924689 2.761770 0
M  V30 7 C -1.849227 -4.729983 1.327858 0
M  V30 8 C -2.586485 -3.498519 0.832846 0
M  V30 9 C -2.284661 -3.155364 -0.572736 0
M  V30 10 C -0.948381 -2.864372 -1.024717 0
M  V30 11 C -0.045718 -1.816833 -0.620078 0
M  V30 12 C -0.372554 -0.368689 -0.824239 0
M  V30 13 C -1.535706 0.136841 -0.096008 0
M  V30 14 C -1.552586 0.120825 1.367367 0
M  V30 15 O -2.842938 0.647328 1.685448 0
M  V30 16 C -2.212394 1.881453 1.500080 0
M  V30 17 O -2.786484 2.780932 0.832038 0
M  V30 18 C -1.205216 1.164750 2.316210 0
M  V30 19 C -0.015095 1.728575 2.788449 0
M  V30 20 C 1.052764 2.428706 2.080462 0
M  V30 21 C 0.620394 3.698813 1.364012 0
M  V30 22 C 1.746199 4.411276 0.669143 0
M  V30 23 C 2.444649 3.616257 -0.384967 0
M  V30 24 C 3.577520 4.424717 -1.030901 0
M  V30 25 O -0.543207 -0.247227 -2.259587 0
M  V30 26 C 0.309939 0.510356 -3.025501 0
M  V30 27 O 1.331174 1.226467 -2.859981 0
M  V30 28 C 0.582062 0.951564 -4.387396 0
M  V30 29 C -0.534131 1.597588 -5.124613 0
M  V30 30 C -1.096062 2.842773 -4.527440 0
M  V30 31 C -2.237644 3.401408 -5.396619 0
M  V30 32 C -1.765359 2.493893 -3.211721 0
M  V30 33 N 1.772477 1.818355 -4.392900 0
M  V30 34 C 2.939696 1.374215 -5.093077 0
M  V30 35 O 3.285576 0.390183 -5.758803 0
M  V30 36 H 2.215841 -4.860083 4.336928 0
M  V30 37 H 2.045511 -5.781853 5.849936 0
M  V30 38 H 3.583335 -5.883263 4.839061 0
M  V30 39 H 2.402821 -7.920808 4.624783 0
M  V30 40 H 2.344221 -7.092808 3.061863 0
M  V30 41 H 0.099936 -7.207208 5.105195 0
M  V30 42 H 0.142222 -8.035787 3.502985 0
M  V30 43 H 0.135424 -4.996065 3.942311 0
M  V30 44 H 0.261872 -5.951426 2.353299 0
M  V30 45 H -1.941140 -7.051421 2.937810 0
M  V30 46 H -1.962381 -6.160606 4.479089 0
M  V30 47 H -2.160027 -4.008597 3.370400 0
M  V30 48 H -3.382104 -5.108401 2.717454 0
M  V30 49 H -2.177594 -5.630979 0.769689 0
M  V30 50 H -0.755170 -4.642454 1.180972 0
M  V30 51 H -3.674317 -3.874882 0.800865 0
M  V30 52 H -2.658921 -2.692217 1.565536 0
M  V30 53 H -3.080235 -2.441769 -0.939181 0
M  V30 54 H -2.627130 -4.111500 -1.152154 0
M  V30 55 H -1.012194 -2.789661 -2.185487 0
M  V30 56 H -0.326732 -3.849040 -0.977957 0
M  V30 57 H 0.985740 -1.946230 -1.109540 0
M  V30 58 H 0.256953 -1.861550 0.481419 0
M  V30 59 H 0.501110 0.287003 -0.611662 0
M  V30 60 H -2.452084 -0.299746 -0.521570 0
M  V30 61 H -1.652082 1.205917 -0.514906 0
M  V30 62 H -1.369927 -0.869042 1.794624 0
M  V30 63 H -1.812933 0.887794 3.253214 0
M  V30 64 H -0.276097 2.487199 3.603343 0
M  V30 65 H 0.502637 0.940865 3.421350 0
M  V30 66 H 1.647437 1.824844 1.371705 0
M  V30 67 H 1.813513 2.758632 2.834270 0
M  V30 68 H 0.179685 4.429298 2.071080 0
M  V30 69 H -0.122602 3.447987 0.550653 0
M  V30 70 H 2.435213 4.856325 1.409545 0
M  V30 71 H 1.269171 5.282428 0.143280 0
M  V30 72 H 1.751454 3.360811 -1.215190 0
M  V30 73 H 2.919696 2.734312 0.083515 0
M  V30 74 H 4.385981 3.732807 -1.291757 0
M  V30 75 H 3.920417 5.247739 -0.360294 0
M  V30 76 H 3.223198 4.891526 -1.968587 0
M  V30 77 H 0.899055 0.050629 -4.992359 0
M  V30 78 H -0.129633 1.898596 -6.138000 0
M  V30 79 H -1.338361 0.863033 -5.387077 0
M  V30 80 H -0.342246 3.628735 -4.377000 0
M  V30 81 H -2.304454 4.510639 -5.285420 0
M  V30 82 H -3.210332 2.998651 -5.095897 0
M  V30 83 H -2.052370 3.134447 -6.457460 0
M  V30 84 H -2.323422 1.550744 -3.281100 0
M  V30 85 H -1.029579 2.544215 -2.392052 0
M  V30 86 H -2.502311 3.309025 -3.003273 0
M  V30 87 H 1.840274 2.748950 -3.920761 0
M  V30 88 H 3.888061 1.922820 -5.172987 0
M  V30 END ATOM
M  V30 BEGIN BOND
M  V30 1 1 1 2
M  V30 2 1 2 3
M  V30 3 1 3 4
M  V30 4 1 4 5
M  V30 5 1 5 6
M  V30 6 1 6 7
M  V30 7 1 7 8
M  V30 8 1 8 9
M  V30 9 1 9 10
M  V30 10 1 10 11
M  V30 11 1 11 12
M  V30 12 1 12 13
M  V30 13 1 13 14
M  V30 14 1 14 15
M  V30 15 1 15 16
M  V30 16 2 16 17
M  V30 17 1 16 18
M  V30 18 1 18 19
M  V30 19 1 19 20
M  V30 20 1 20 21
M  V30 21 1 21 22
M  V30 22 1 22 23
M  V30 23 1 23 24
M  V30 24 1 12 25
M  V30 25 1 25 26
M  V30 26 2 26 27
M  V30 27 1 26 28
M  V30 28 1 28 29
M  V30 29 1 29 30
M  V30 30 1 30 31
M  V30 31 1 30 32
M  V30 32 1 28 33
M  V30 33 1 33 34
M  V30 34 2 34 35
M  V30 35 1 18 14
M  V30 36 1 1 36
M  V30 37 1 1 37
M  V30 38 1 1 38
M  V30 39 1 2 39
M  V30 40 1 2 40
M  V30 41 1 3 41
M  V30 42 1 3 42
M  V30 43 1 4 43
M  V30 44 1 4 44
M  V30 45 1 5 45
M  V30 46 1 5 46
M  V30 47 1 6 47
M  V30 48 1 6 48
M  V30 49 1 7 49
M  V30 50 1 7 50
M  V30 51 1 8 51
M  V30 52 1 8 52
M  V30 53 1 9 53
M  V30 54 1 9 54
M  V30 55 1 10 55
M  V30 56 1 10 56
M  V30 57 1 11 57
M  V30 58 1 11 58
M  V30 59 1 12 59
M  V30 60 1 13 60
M  V30 61 1 13 61
M  V30 62 1 14 62
M  V30 63 1 18 63
M  V30 64 1 19 64
M  V30 65 1 19 65
M  V30 66 1 20 66
M  V30 67 1 20 67
M  V30 68 1 21 68
M  V30 69 1 21 69
M  V30 70 1 22 70
M  V30 71 1 22 71
M  V30 72 1 23 72
M  V30 73 1 23 73
M  V30 74 1 24 74
M  V30 75 1 24 75
M  V30 76 1 24 76
M  V30 77 1 28 77
M  V30 78 1 29 78
M  V30 79 1 29 79
M  V30 80 1 30 80
M  V30 81 1 31 81
M  V30 82 1 31 82
M  V30 83 1 31 83
M  V30 84 1 32 84
M  V30 85 1 32 85
M  V30 86 1 32 86
M  V30 87 1 33 87
M  V30 88 1 34 88
M  V30 END BOND
M  V30 END CTAB
M  END
>  <Dataset>  (781) 
ChEMBL_Kinases

>  <Ligand_Instance>  (781) 
nan

>  <PDB_ID>  (781) 
nan

>  <Standardized_SMILES>  (781) 
CCCCCCCCCCCC(CC1OC(=O)C1CCCCCC)OC(=O)C(CC(C)C)NC=O

>  <Name>  (781) 
nan

>  <Pocket>  (781) 
nan

>  <ATP_Site>  (781) 
nan

>  <Peripheral>  (781) 
nan

>  <Num_H_Atoms_ProtBoundConf>  (781) 
nan

>  <Num_Resolved_Atoms>  (781) 
nan

>  <Num_Not_Resolved_Atoms>  (781) 
nan

$$$$
CHEMBL1433276
     RDKit          3D

  0  0  0  0  0  0  0  0  0  0999 V3000
M  V30 BEGIN CTAB
M  V30 COUNTS 48 49 0 0 0
M  V30 BEGIN ATOM
M  V30 1 C -1.628526 -5.169816 2.616310 0
M  V30 2 C -1.664970 -3.739784 2.093138 0 CFG=1
M  V30 3 C -0.259086 -3.242278 2.109912 0
M  V30 4 O 0.044259 -1.987167 1.824150 0
M  V30 5 C 0.070225 -0.980775 0.976790 0
M  V30 6 C -0.287317 -0.715993 -0.317181 0
M  V30 7 C -0.122818 0.494136 -0.939589 0
M  V30 8 C 0.433038 1.572873 -0.294597 0
M  V30 9 C 0.399144 2.745331 -1.137202 0
M  V30 10 C 1.285532 3.698699 -1.044920 0
M  V30 11 C 2.437661 3.904513 -0.241689 0
M  V30 12 C 2.771671 5.220545 -0.031142 0
M  V30 13 C 3.899955 5.610975 0.645513 0
M  V30 14 C 4.778019 4.691661 1.160465 0
M  V30 15 C 4.529974 3.360826 0.998873 0
M  V30 16 C 3.382113 3.065799 0.311126 0
M  V30 17 C 0.801342 1.339717 1.008819 0
M  V30 18 C 0.640073 0.120995 1.647309 0
M  V30 19 N -2.394803 -3.707506 0.886204 0 CHG=1 VAL=4
M  V30 20 C -1.654869 -4.172174 -0.268724 0
M  V30 21 C -3.052155 -2.471801 0.562988 0
M  V30 22 C -3.511777 -4.689758 1.008015 0
M  V30 23 H -2.621176 -5.519797 2.948313 0
M  V30 24 H -1.207952 -5.801537 1.812933 0
M  V30 25 H -1.000725 -5.143936 3.537922 0
M  V30 26 H -2.228333 -3.105109 2.839267 0
M  V30 27 H 0.424611 -3.986063 1.566610 0
M  V30 28 H 0.078927 -3.440707 3.199924 0
M  V30 29 H -0.701824 -1.568431 -0.797253 0
M  V30 30 H -0.484407 0.474074 -1.982140 0
M  V30 31 H -0.408330 2.867673 -1.891591 0
M  V30 32 H 1.036265 4.485463 -1.787584 0
M  V30 33 H 2.154010 6.044850 -0.392188 0
M  V30 34 H 4.114028 6.657456 0.787285 0
M  V30 35 H 5.647054 5.042686 1.683161 0
M  V30 36 H 5.170206 2.593254 1.372887 0
M  V30 37 H 3.223062 1.995569 0.148083 0
M  V30 38 H 1.189527 2.223699 1.497830 0
M  V30 39 H 1.009137 0.185403 2.673897 0
M  V30 40 H -2.109514 -3.861858 -1.219501 0
M  V30 41 H -0.583763 -3.885423 -0.215068 0
M  V30 42 H -1.664384 -5.281316 -0.240092 0
M  V30 43 H -2.729736 -1.611318 1.184643 0
M  V30 44 H -4.171811 -2.506935 0.726282 0
M  V30 45 H -2.964528 -2.285477 -0.533775 0
M  V30 46 H -3.053842 -5.693054 0.932987 0
M  V30 47 H -4.090336 -4.509177 1.922680 0
M  V30 48 H -4.178828 -4.486221 0.144646 0
M  V30 END ATOM
M  V30 BEGIN BOND
M  V30 1 1 1 2
M  V30 2 1 2 3
M  V30 3 1 3 4
M  V30 4 1 4 5
M  V30 5 2 5 6
M  V30 6 1 6 7
M  V30 7 2 7 8
M  V30 8 1 8 9
M  V30 9 2 9 10
M  V30 10 1 10 11
M  V30 11 2 11 12
M  V30 12 1 12 13
M  V30 13 2 13 14
M  V30 14 1 14 15
M  V30 15 2 15 16
M  V30 16 1 8 17
M  V30 17 2 17 18
M  V30 18 1 2 19
M  V30 19 1 19 20
M  V30 20 1 19 21
M  V30 21 1 19 22
M  V30 22 1 18 5
M  V30 23 1 16 11
M  V30 24 1 1 23
M  V30 25 1 1 24
M  V30 26 1 1 25
M  V30 27 1 2 26 CFG=1
M  V30 28 1 3 27
M  V30 29 1 3 28
M  V30 30 1 6 29
M  V30 31 1 7 30
M  V30 32 1 9 31
M  V30 33 1 10 32
M  V30 34 1 12 33
M  V30 35 1 13 34
M  V30 36 1 14 35
M  V30 37 1 15 36
M  V30 38 1 16 37
M  V30 39 1 17 38
M  V30 40 1 18 39
M  V30 41 1 20 40
M  V30 42 1 20 41
M  V30 43 1 20 42
M  V30 44 1 21 43
M  V30 45 1 21 44
M  V30 46 1 21 45
M  V30 47 1 22 46
M  V30 48 1 22 47
M  V30 49 1 22 48
M  V30 END BOND
M  V30 END CTAB
M  END
>  <Dataset>  (782) 
ChEMBL_Kinases

>  <Ligand_Instance>  (782) 
nan

>  <PDB_ID>  (782) 
nan

>  <Standardized_SMILES>  (782) 
C[C@@H](COc1ccc(/C=C\c2ccccc2)cc1)[N+](C)(C)C

>  <Name>  (782) 
nan

>  <Pocket>  (782) 
nan

>  <ATP_Site>  (782) 
nan

>  <Peripheral>  (782) 
nan

>  <Num_H_Atoms_ProtBoundConf>  (782) 
nan

>  <Num_Resolved_Atoms>  (782) 
nan

>  <Num_Not_Resolved_Atoms>  (782) 
nan

$$$$
CHEMBL1433333
     RDKit          3D

  0  0  0  0  0  0  0  0  0  0999 V3000
M  V30 BEGIN CTAB
M  V30 COUNTS 43 45 0 0 0
M  V30 BEGIN ATOM
M  V30 1 C -2.246607 -6.360457 -0.235202 0
M  V30 2 C -2.226274 -4.918967 -0.526642 0
M  V30 3 O -3.163489 -4.161033 -0.150575 0
M  V30 4 C -1.097914 -4.364312 -1.264477 0
M  V30 5 C -0.051384 -5.156955 -1.694889 0
M  V30 6 C 1.002528 -4.601172 -2.391352 0
M  V30 7 C 1.068880 -3.257390 -2.689429 0
M  V30 8 C 0.038600 -2.445069 -2.271914 0
M  V30 9 N -0.107497 -1.021083 -2.466921 0
M  V30 10 C 0.473263 -0.278293 -1.402449 0
M  V30 11 O 1.020061 -0.879953 -0.459014 0
M  V30 12 N 0.457862 1.121021 -1.366561 0
M  V30 13 C 1.002433 1.970495 -0.361523 0
M  V30 14 C 1.000589 3.334052 -0.303116 0
M  V30 15 N 1.628678 3.712843 0.828843 0
M  V30 16 N 2.043655 2.661679 1.517856 0
M  V30 17 C 2.758790 2.666212 2.787375 0
M  V30 18 C 1.791060 2.636716 3.922054 0
M  V30 19 C 1.408227 1.379747 4.391214 0
M  V30 20 C 0.519626 1.176147 5.435988 0
M  V30 21 C 0.000533 2.323906 6.025681 0
M  V30 22 F -0.868766 2.118638 7.047857 0
M  V30 23 C 0.370239 3.574221 5.572016 0
M  V30 24 C 1.257424 3.751864 4.529325 0
M  V30 25 C 1.658629 1.576055 0.785348 0
M  V30 26 C -1.028102 -3.011638 -1.566214 0
M  V30 27 H -2.548205 -6.970659 -1.097614 0
M  V30 28 H -1.249007 -6.702920 0.130463 0
M  V30 29 H -2.985438 -6.524758 0.600177 0
M  V30 30 H -0.062147 -6.208572 -1.484606 0
M  V30 31 H 1.849679 -5.180629 -2.751846 0
M  V30 32 H 1.833042 -2.731877 -3.218217 0
M  V30 33 H -0.573736 -0.506518 -3.271310 0
M  V30 34 H -0.018367 1.593908 -2.190531 0
M  V30 35 H 0.565200 4.022873 -1.044746 0
M  V30 36 H 3.436938 3.530771 2.859567 0
M  V30 37 H 3.415409 1.752967 2.855254 0
M  V30 38 H 1.819531 0.493105 3.923597 0
M  V30 39 H 0.278323 0.164517 5.735272 0
M  V30 40 H -0.060878 4.459437 6.062873 0
M  V30 41 H 1.561310 4.710354 4.157553 0
M  V30 42 H 1.880707 0.595315 1.135166 0
M  V30 43 H -1.878436 -2.423969 -1.205540 0
M  V30 END ATOM
M  V30 BEGIN BOND
M  V30 1 1 1 2
M  V30 2 2 2 3
M  V30 3 1 2 4
M  V30 4 2 4 5
M  V30 5 1 5 6
M  V30 6 2 6 7
M  V30 7 1 7 8
M  V30 8 1 8 9
M  V30 9 1 9 10
M  V30 10 2 10 11
M  V30 11 1 10 12
M  V30 12 1 12 13
M  V30 13 1 13 14
M  V30 14 2 14 15
M  V30 15 1 15 16
M  V30 16 1 16 17
M  V30 17 1 17 18
M  V30 18 2 18 19
M  V30 19 1 19 20
M  V30 20 2 20 21
M  V30 21 1 21 22
M  V30 22 1 21 23
M  V30 23 2 23 24
M  V30 24 1 16 25
M  V30 25 2 8 26
M  V30 26 1 26 4
M  V30 27 2 25 13
M  V30 28 1 24 18
M  V30 29 1 1 27
M  V30 30 1 1 28
M  V30 31 1 1 29
M  V30 32 1 5 30
M  V30 33 1 6 31
M  V30 34 1 7 32
M  V30 35 1 9 33
M  V30 36 1 12 34
M  V30 37 1 14 35
M  V30 38 1 17 36
M  V30 39 1 17 37
M  V30 40 1 19 38
M  V30 41 1 20 39
M  V30 42 1 23 40
M  V30 43 1 24 41
M  V30 44 1 25 42
M  V30 45 1 26 43
M  V30 END BOND
M  V30 END CTAB
M  END
>  <Dataset>  (783) 
ChEMBL_Kinases

>  <Ligand_Instance>  (783) 
nan

>  <PDB_ID>  (783) 
nan

>  <Standardized_SMILES>  (783) 
CC(=O)c1cccc(NC(=O)Nc2cnn(Cc3ccc(F)cc3)c2)c1

>  <Name>  (783) 
nan

>  <Pocket>  (783) 
nan

>  <ATP_Site>  (783) 
nan

>  <Peripheral>  (783) 
nan

>  <Num_H_Atoms_ProtBoundConf>  (783) 
nan

>  <Num_Resolved_Atoms>  (783) 
nan

>  <Num_Not_Resolved_Atoms>  (783) 
nan

$$$$
CHEMBL1433396
     RDKit          3D

  0  0  0  0  0  0  0  0  0  0999 V3000
M  V30 BEGIN CTAB
M  V30 COUNTS 45 48 0 0 0
M  V30 BEGIN ATOM
M  V30 1 C 0.640648 -4.788880 -1.703770 0
M  V30 2 N 0.523160 -3.648263 -0.813528 0 CHG=1 VAL=4
M  V30 3 C 0.479923 -4.108875 0.545782 0
M  V30 4 C -0.651070 -2.909772 -1.210109 0 CFG=2
M  V30 5 C -0.218149 -2.388126 -2.568026 0
M  V30 6 C 1.294907 -2.368070 -2.540779 0
M  V30 7 C 1.589988 -2.748620 -1.102880 0 CFG=1
M  V30 8 C 1.559001 -1.471828 -0.315924 0
M  V30 9 C 0.262883 -1.162825 0.350291 0
M  V30 10 O 0.146886 0.218005 0.614439 0
M  V30 11 C 0.110057 0.768159 1.887557 0
M  V30 12 O 0.182362 0.015368 2.873053 0
M  V30 13 C -0.011712 2.211153 2.094058 0
M  V30 14 C -0.104349 3.205269 1.140402 0
M  V30 15 N -0.200485 4.390459 1.790460 0
M  V30 16 C -0.168829 4.144319 3.115795 0
M  V30 17 C -0.233553 5.003061 4.203229 0
M  V30 18 C -0.185583 4.565461 5.522059 0
M  V30 19 C -0.067715 3.207021 5.736015 0
M  V30 20 C -0.002547 2.344406 4.662497 0
M  V30 21 C -0.049462 2.771174 3.360151 0
M  V30 22 C -0.949635 -1.743845 -0.312826 0
M  V30 23 H 1.614105 -4.801218 -2.239553 0
M  V30 24 H 0.652072 -5.743368 -1.103083 0
M  V30 25 H -0.239197 -4.891085 -2.369222 0
M  V30 26 H 0.521654 -5.218425 0.587146 0
M  V30 27 H 1.348875 -3.765756 1.146093 0
M  V30 28 H -0.497449 -3.864013 1.048606 0
M  V30 29 H -1.554544 -3.538040 -1.328809 0
M  V30 30 H -0.657229 -1.381817 -2.799345 0
M  V30 31 H -0.602878 -3.049911 -3.393397 0
M  V30 32 H 1.633110 -1.310623 -2.742968 0
M  V30 33 H 1.761343 -3.050948 -3.276816 0
M  V30 34 H 2.539193 -3.285745 -0.979466 0
M  V30 35 H 2.358880 -1.491997 0.452289 0
M  V30 36 H 1.790357 -0.588363 -0.977899 0
M  V30 37 H 0.309173 -1.605875 1.383887 0
M  V30 38 H -0.101239 3.068563 0.067163 0
M  V30 39 H -0.285889 5.349083 1.361515 0
M  V30 40 H -0.327327 6.085687 4.055369 0
M  V30 41 H -0.238097 5.257760 6.358523 0
M  V30 42 H -0.024298 2.794311 6.750712 0
M  V30 43 H 0.090443 1.273547 4.840852 0
M  V30 44 H -1.681453 -2.112724 0.455058 0
M  V30 45 H -1.527496 -1.006796 -0.904454 0
M  V30 END ATOM
M  V30 BEGIN BOND
M  V30 1 1 1 2
M  V30 2 1 2 3
M  V30 3 1 2 4
M  V30 4 1 4 5
M  V30 5 1 5 6
M  V30 6 1 6 7
M  V30 7 1 7 8
M  V30 8 1 8 9
M  V30 9 1 9 10
M  V30 10 1 10 11
M  V30 11 2 11 12
M  V30 12 1 11 13
M  V30 13 2 13 14
M  V30 14 1 14 15
M  V30 15 1 15 16
M  V30 16 2 16 17
M  V30 17 1 17 18
M  V30 18 2 18 19
M  V30 19 1 19 20
M  V30 20 2 20 21
M  V30 21 1 9 22
M  V30 22 1 7 2
M  V30 23 1 21 13
M  V30 24 1 22 4
M  V30 25 1 21 16
M  V30 26 1 1 23
M  V30 27 1 1 24
M  V30 28 1 1 25
M  V30 29 1 3 26
M  V30 30 1 3 27
M  V30 31 1 3 28
M  V30 32 1 4 29 CFG=3
M  V30 33 1 5 30
M  V30 34 1 5 31
M  V30 35 1 6 32
M  V30 36 1 6 33
M  V30 37 1 7 34 CFG=3
M  V30 38 1 8 35
M  V30 39 1 8 36
M  V30 40 1 9 37
M  V30 41 1 14 38
M  V30 42 1 15 39
M  V30 43 1 17 40
M  V30 44 1 18 41
M  V30 45 1 19 42
M  V30 46 1 20 43
M  V30 47 1 22 44
M  V30 48 1 22 45
M  V30 END BOND
M  V30 END CTAB
M  END
>  <Dataset>  (784) 
ChEMBL_Kinases

>  <Ligand_Instance>  (784) 
nan

>  <PDB_ID>  (784) 
nan

>  <Standardized_SMILES>  (784) 
C[N+]1(C)[C@@H]2CC[C@H]1CC(OC(=O)c1c[nH]c3ccccc13)C2

>  <Name>  (784) 
nan

>  <Pocket>  (784) 
nan

>  <ATP_Site>  (784) 
nan

>  <Peripheral>  (784) 
nan

>  <Num_H_Atoms_ProtBoundConf>  (784) 
nan

>  <Num_Resolved_Atoms>  (784) 
nan

>  <Num_Not_Resolved_Atoms>  (784) 
nan

$$$$
CHEMBL1433464
     RDKit          3D

  0  0  0  0  0  0  0  0  0  0999 V3000
M  V30 BEGIN CTAB
M  V30 COUNTS 41 44 0 0 0
M  V30 BEGIN ATOM
M  V30 1 C 0.387920 -5.756708 1.722040 0
M  V30 2 C 1.024298 -4.494130 1.236527 0
M  V30 3 C 2.179279 -4.104564 1.880980 0
M  V30 4 C 2.760521 -2.947637 1.434260 0
M  V30 5 C 2.262586 -2.191997 0.415321 0
M  V30 6 C 1.108871 -2.566781 -0.239429 0
M  V30 7 C 0.355545 -1.938362 -1.350680 0
M  V30 8 N -0.710933 -1.064418 -0.907964 0
M  V30 9 C -0.537607 0.107263 -0.131529 0
M  V30 10 N 0.647205 0.562404 0.292451 0
M  V30 11 C 0.816261 1.671937 1.025153 0
M  V30 12 C 2.151076 2.093346 1.444001 0
M  V30 13 C 2.557137 3.419021 1.602997 0
M  V30 14 C 3.880260 3.429393 2.007430 0
M  V30 15 O 4.260160 2.173349 2.090346 0
M  V30 16 C 3.290067 1.367705 1.772777 0
M  V30 17 N -0.222802 2.438638 1.403571 0
M  V30 18 C -1.457266 2.035953 1.007855 0
M  V30 19 C -2.514348 2.811955 1.390277 0
M  V30 20 C -3.806958 2.486963 1.038147 0
M  V30 21 C -3.989889 1.332139 0.274775 0
M  V30 22 C -2.882186 0.597075 -0.075706 0
M  V30 23 C -1.596676 0.891330 0.255855 0
M  V30 24 C 0.501606 -3.745071 0.202595 0
M  V30 25 H -0.122723 -5.576842 2.691094 0
M  V30 26 H -0.411888 -6.027401 1.011051 0
M  V30 27 H 1.120474 -6.571985 1.828158 0
M  V30 28 H 2.603158 -4.673005 2.688362 0
M  V30 29 H 3.670600 -2.548953 1.868453 0
M  V30 30 H 2.679125 -1.284012 0.021788 0
M  V30 31 H 0.030431 -2.701847 -2.065216 0
M  V30 32 H 1.113580 -1.280723 -1.870851 0
M  V30 33 H -1.632425 -1.391205 -1.223117 0
M  V30 34 H 1.886936 4.259449 1.420445 0
M  V30 35 H 4.400832 4.363435 2.191078 0
M  V30 36 H 3.311173 0.283477 1.750629 0
M  V30 37 H -2.363286 3.708276 1.983786 0
M  V30 38 H -4.636045 3.087268 1.332729 0
M  V30 39 H -5.010342 1.093026 0.008016 0
M  V30 40 H -3.138359 -0.270334 -0.662197 0
M  V30 41 H -0.412536 -4.173475 -0.211174 0
M  V30 END ATOM
M  V30 BEGIN BOND
M  V30 1 1 1 2
M  V30 2 2 2 3
M  V30 3 1 3 4
M  V30 4 2 4 5
M  V30 5 1 5 6
M  V30 6 1 6 7
M  V30 7 1 7 8
M  V30 8 1 8 9
M  V30 9 2 9 10
M  V30 10 1 10 11
M  V30 11 1 11 12
M  V30 12 1 12 13
M  V30 13 2 13 14
M  V30 14 1 14 15
M  V30 15 1 15 16
M  V30 16 2 11 17
M  V30 17 1 17 18
M  V30 18 2 18 19
M  V30 19 1 19 20
M  V30 20 2 20 21
M  V30 21 1 21 22
M  V30 22 2 22 23
M  V30 23 2 6 24
M  V30 24 1 24 2
M  V30 25 1 23 9
M  V30 26 2 16 12
M  V30 27 1 23 18
M  V30 28 1 1 25
M  V30 29 1 1 26
M  V30 30 1 1 27
M  V30 31 1 3 28
M  V30 32 1 4 29
M  V30 33 1 5 30
M  V30 34 1 7 31
M  V30 35 1 7 32
M  V30 36 1 8 33
M  V30 37 1 13 34
M  V30 38 1 14 35
M  V30 39 1 16 36
M  V30 40 1 19 37
M  V30 41 1 20 38
M  V30 42 1 21 39
M  V30 43 1 22 40
M  V30 44 1 24 41
M  V30 END BOND
M  V30 END CTAB
M  END
>  <Dataset>  (785) 
ChEMBL_Kinases

>  <Ligand_Instance>  (785) 
nan

>  <PDB_ID>  (785) 
nan

>  <Standardized_SMILES>  (785) 
Cc1cccc(CNc2nc(-c3ccoc3)nc3ccccc23)c1

>  <Name>  (785) 
nan

>  <Pocket>  (785) 
nan

>  <ATP_Site>  (785) 
nan

>  <Peripheral>  (785) 
nan

>  <Num_H_Atoms_ProtBoundConf>  (785) 
nan

>  <Num_Resolved_Atoms>  (785) 
nan

>  <Num_Not_Resolved_Atoms>  (785) 
nan

$$$$
CHEMBL1433559
     RDKit          3D

  0  0  0  0  0  0  0  0  0  0999 V3000
M  V30 BEGIN CTAB
M  V30 COUNTS 46 49 0 0 0
M  V30 BEGIN ATOM
M  V30 1 C 0.116619 -5.800753 -1.084035 0
M  V30 2 O -0.048217 -4.422817 -0.965355 0
M  V30 3 C 0.516698 -3.472884 -1.795045 0
M  V30 4 C 1.331920 -3.863727 -2.861054 0
M  V30 5 C 1.851535 -2.848785 -3.634896 0
M  V30 6 C 1.630838 -1.508328 -3.438447 0
M  V30 7 C 0.822343 -1.138743 -2.379882 0
M  V30 8 C 0.515064 0.270366 -2.072688 0
M  V30 9 C 0.437919 1.192471 -3.115666 0
M  V30 10 C 0.145735 2.522887 -2.803301 0
M  V30 11 C -0.058142 2.901598 -1.501434 0
M  V30 12 N -0.339786 4.182680 -1.195508 0
M  V30 13 C -0.538636 4.554480 0.070484 0
M  V30 14 N -0.459157 3.649892 1.055265 0
M  V30 15 C -0.188017 2.357818 0.877239 0
M  V30 16 N -0.111255 1.421636 1.950583 0
M  V30 17 C -0.349598 1.966497 3.277291 0
M  V30 18 C -0.234093 0.875142 4.269907 0
M  V30 19 C -1.391676 0.160948 4.585190 0
M  V30 20 N -1.400860 -0.850712 5.473182 0
M  V30 21 C -0.246224 -1.211524 6.103351 0
M  V30 22 C -0.198586 -2.319910 7.091203 0
M  V30 23 C 0.905877 -0.511922 5.799513 0
M  V30 24 N 0.909501 0.506818 4.903772 0
M  V30 25 C 0.012056 2.005060 -0.439074 0
M  V30 26 C 0.299407 0.717292 -0.787017 0
M  V30 27 C 0.287790 -2.147087 -1.586504 0
M  V30 28 H -0.026209 -6.190406 -2.117577 0
M  V30 29 H 1.132888 -6.116608 -0.767375 0
M  V30 30 H -0.580944 -6.285296 -0.375841 0
M  V30 31 H 1.540024 -4.907937 -3.062688 0
M  V30 32 H 2.483910 -3.193322 -4.458638 0
M  V30 33 H 2.061968 -0.741177 -4.074748 0
M  V30 34 H 0.595769 0.905767 -4.135677 0
M  V30 35 H 0.077279 3.267470 -3.583947 0
M  V30 36 H -0.772908 5.558965 0.444633 0
M  V30 37 H 0.092541 0.428093 1.857729 0
M  V30 38 H 0.430191 2.734644 3.499990 0
M  V30 39 H -1.353456 2.413071 3.322090 0
M  V30 40 H -2.346238 0.410617 4.106939 0
M  V30 41 H -0.189099 -1.981939 8.134302 0
M  V30 42 H 0.754209 -2.884992 6.917613 0
M  V30 43 H -1.090320 -2.960320 6.915759 0
M  V30 44 H 1.834760 -0.747648 6.258670 0
M  V30 45 H 0.378335 -0.060475 -0.045626 0
M  V30 46 H -0.353460 -1.883370 -0.744778 0
M  V30 END ATOM
M  V30 BEGIN BOND
M  V30 1 1 1 2
M  V30 2 1 2 3
M  V30 3 2 3 4
M  V30 4 1 4 5
M  V30 5 2 5 6
M  V30 6 1 6 7
M  V30 7 1 7 8
M  V30 8 2 8 9
M  V30 9 1 9 10
M  V30 10 2 10 11
M  V30 11 1 11 12
M  V30 12 2 12 13
M  V30 13 1 13 14
M  V30 14 2 14 15
M  V30 15 1 15 16
M  V30 16 1 16 17
M  V30 17 1 17 18
M  V30 18 2 18 19
M  V30 19 1 19 20
M  V30 20 2 20 21
M  V30 21 1 21 22
M  V30 22 1 21 23
M  V30 23 2 23 24
M  V30 24 1 15 25
M  V30 25 2 25 26
M  V30 26 2 7 27
M  V30 27 1 27 3
M  V30 28 1 26 8
M  V30 29 1 25 11
M  V30 30 1 24 18
M  V30 31 1 1 28
M  V30 32 1 1 29
M  V30 33 1 1 30
M  V30 34 1 4 31
M  V30 35 1 5 32
M  V30 36 1 6 33
M  V30 37 1 9 34
M  V30 38 1 10 35
M  V30 39 1 13 36
M  V30 40 1 16 37
M  V30 41 1 17 38
M  V30 42 1 17 39
M  V30 43 1 19 40
M  V30 44 1 22 41
M  V30 45 1 22 42
M  V30 46 1 22 43
M  V30 47 1 23 44
M  V30 48 1 26 45
M  V30 49 1 27 46
M  V30 END BOND
M  V30 END CTAB
M  END
>  <Dataset>  (786) 
ChEMBL_Kinases

>  <Ligand_Instance>  (786) 
nan

>  <PDB_ID>  (786) 
nan

>  <Standardized_SMILES>  (786) 
COc1cccc(-c2ccc3ncnc(NCc4cnc(C)cn4)c3c2)c1

>  <Name>  (786) 
nan

>  <Pocket>  (786) 
nan

>  <ATP_Site>  (786) 
nan

>  <Peripheral>  (786) 
nan

>  <Num_H_Atoms_ProtBoundConf>  (786) 
nan

>  <Num_Resolved_Atoms>  (786) 
nan

>  <Num_Not_Resolved_Atoms>  (786) 
nan

$$$$
CHEMBL1433724
     RDKit          3D

  0  0  0  0  0  0  0  0  0  0999 V3000
M  V30 BEGIN CTAB
M  V30 COUNTS 34 36 0 0 0
M  V30 BEGIN ATOM
M  V30 1 C 2.509071 -1.388823 -1.761551 0
M  V30 2 C 2.713461 -2.610627 -1.155116 0
M  V30 3 C 2.448737 -2.702347 0.194572 0
M  V30 4 C 1.994520 -1.649716 0.966123 0
M  V30 5 C 1.776707 -1.997777 2.404123 0
M  V30 6 N 0.419330 -2.498042 2.596552 0
M  V30 7 C -0.506814 -1.476613 2.245075 0
M  V30 8 C -1.009954 -0.725190 3.309512 0
M  V30 9 C -1.907888 0.278320 3.013158 0
M  V30 10 N -2.273793 0.507665 1.724596 0
M  V30 11 C -1.788239 -0.217190 0.698444 0
M  V30 12 C -2.200831 0.046385 -0.691172 0
M  V30 13 C -3.137015 1.039946 -0.891092 0
M  V30 14 C -3.540141 1.292890 -2.211317 0
M  V30 15 C -2.955012 0.516103 -3.187995 0
M  V30 16 N -2.045171 -0.443598 -2.951578 0
M  V30 17 C -1.627377 -0.719958 -1.683738 0
M  V30 18 N -0.916190 -1.189989 0.997145 0
M  V30 19 C 1.794118 -0.435509 0.350390 0
M  V30 20 C 2.056325 -0.341319 -0.989806 0
M  V30 21 H 2.702256 -1.265994 -2.821061 0
M  V30 22 H 3.066902 -3.438690 -1.746115 0
M  V30 23 H 2.634706 -3.701706 0.601179 0
M  V30 24 H 2.473715 -2.786772 2.732244 0
M  V30 25 H 1.957822 -1.097422 3.050417 0
M  V30 26 H 0.233194 -3.452684 2.936254 0
M  V30 27 H -0.733470 -0.888034 4.349023 0
M  V30 28 H -2.369662 0.929281 3.740086 0
M  V30 29 H -3.580441 1.634120 -0.111453 0
M  V30 30 H -4.264496 2.041529 -2.502932 0
M  V30 31 H -3.169483 0.599660 -4.251008 0
M  V30 32 H -0.901403 -1.471573 -1.414686 0
M  V30 33 H 1.438984 0.345799 1.003166 0
M  V30 34 H 1.891912 0.630496 -1.464915 0
M  V30 END ATOM
M  V30 BEGIN BOND
M  V30 1 2 1 2
M  V30 2 1 2 3
M  V30 3 2 3 4
M  V30 4 1 4 5
M  V30 5 1 5 6
M  V30 6 1 6 7
M  V30 7 2 7 8
M  V30 8 1 8 9
M  V30 9 2 9 10
M  V30 10 1 10 11
M  V30 11 1 11 12
M  V30 12 2 12 13
M  V30 13 1 13 14
M  V30 14 2 14 15
M  V30 15 1 15 16
M  V30 16 2 16 17
M  V30 17 2 11 18
M  V30 18 1 4 19
M  V30 19 2 19 20
M  V30 20 1 20 1
M  V30 21 1 18 7
M  V30 22 1 17 12
M  V30 23 1 1 21
M  V30 24 1 2 22
M  V30 25 1 3 23
M  V30 26 1 5 24
M  V30 27 1 5 25
M  V30 28 1 6 26
M  V30 29 1 8 27
M  V30 30 1 9 28
M  V30 31 1 13 29
M  V30 32 1 14 30
M  V30 33 1 15 31
M  V30 34 1 17 32
M  V30 35 1 19 33
M  V30 36 1 20 34
M  V30 END BOND
M  V30 END CTAB
M  END
>  <Dataset>  (787) 
ChEMBL_Kinases

>  <Ligand_Instance>  (787) 
nan

>  <PDB_ID>  (787) 
nan

>  <Standardized_SMILES>  (787) 
c1ccc(CNc2ccnc(-c3cccnc3)n2)cc1

>  <Name>  (787) 
nan

>  <Pocket>  (787) 
nan

>  <ATP_Site>  (787) 
nan

>  <Peripheral>  (787) 
nan

>  <Num_H_Atoms_ProtBoundConf>  (787) 
nan

>  <Num_Resolved_Atoms>  (787) 
nan

>  <Num_Not_Resolved_Atoms>  (787) 
nan

$$$$
CHEMBL1433752
     RDKit          3D

  0  0  0  0  0  0  0  0  0  0999 V3000
M  V30 BEGIN CTAB
M  V30 COUNTS 49 53 0 0 0
M  V30 BEGIN ATOM
M  V30 1 C 2.623616 -4.594043 5.977869 0
M  V30 2 O 2.338648 -3.803209 4.862494 0
M  V30 3 C 3.223521 -3.441484 3.875756 0
M  V30 4 C 4.582698 -3.767253 3.750033 0
M  V30 5 C 5.239499 -3.265143 2.649003 0
M  V30 6 C 4.665453 -2.477309 1.675085 0
M  V30 7 N 5.187087 -1.931286 0.562169 0
M  V30 8 C 4.189913 -1.245391 -0.056682 0
M  V30 9 C 3.020913 -1.364926 0.684527 0
M  V30 10 C 1.634797 -0.845456 0.499536 0
M  V30 11 C 1.364271 -0.393273 -0.893361 0
M  V30 12 N -0.021611 0.072275 -0.949431 0
M  V30 13 C -0.511219 1.192433 -0.236188 0
M  V30 14 N 0.276377 1.941400 0.552622 0
M  V30 15 C -0.147826 3.019341 1.241838 0
M  V30 16 N -1.434690 3.425807 1.179615 0
M  V30 17 C -2.279631 2.712060 0.401629 0
M  V30 18 C -3.612318 3.091874 0.307970 0
M  V30 19 C -4.500477 2.388872 -0.473526 0
M  V30 20 C -4.068573 1.273429 -1.189530 0
M  V30 21 C -5.043394 0.564231 -2.001449 0
M  V30 22 C -6.375388 0.443304 -1.714084 0
M  V30 23 C -6.912112 -0.297768 -2.744852 0
M  V30 24 O -5.965903 -0.594901 -3.582163 0
M  V30 25 C -4.794972 -0.102147 -3.194204 0
M  V30 26 C -2.737448 0.931059 -1.067671 0
M  V30 27 C -1.821517 1.610137 -0.296204 0
M  V30 28 C 3.327754 -2.151633 1.790388 0
M  V30 29 C 2.622071 -2.641774 2.896978 0
M  V30 30 H 3.697493 -4.852268 5.973196 0
M  V30 31 H 2.312313 -4.110912 6.936051 0
M  V30 32 H 2.037662 -5.554319 5.883282 0
M  V30 33 H 4.988830 -4.385349 4.532879 0
M  V30 34 H 6.304282 -3.536546 2.575876 0
M  V30 35 H 6.141008 -1.963132 0.164514 0
M  V30 36 H 4.120109 -0.655015 -0.956212 0
M  V30 37 H 1.472630 0.028161 1.183880 0
M  V30 38 H 0.933961 -1.673323 0.734743 0
M  V30 39 H 1.965186 0.537403 -1.120468 0
M  V30 40 H 1.626003 -1.115249 -1.663570 0
M  V30 41 H -0.585541 -0.530638 -1.575114 0
M  V30 42 H 0.628418 3.521453 1.840183 0
M  V30 43 H -3.900260 3.968368 0.886493 0
M  V30 44 H -5.530560 2.729505 -0.510234 0
M  V30 45 H -6.977167 0.819701 -0.875479 0
M  V30 46 H -7.955793 -0.576680 -2.825145 0
M  V30 47 H -3.851214 -0.218604 -3.731109 0
M  V30 48 H -2.470034 0.059464 -1.647613 0
M  V30 49 H 1.566037 -2.348695 2.931281 0
M  V30 END ATOM
M  V30 BEGIN BOND
M  V30 1 1 1 2
M  V30 2 1 2 3
M  V30 3 2 3 4
M  V30 4 1 4 5
M  V30 5 2 5 6
M  V30 6 1 6 7
M  V30 7 1 7 8
M  V30 8 2 8 9
M  V30 9 1 9 10
M  V30 10 1 10 11
M  V30 11 1 11 12
M  V30 12 1 12 13
M  V30 13 2 13 14
M  V30 14 1 14 15
M  V30 15 2 15 16
M  V30 16 1 16 17
M  V30 17 2 17 18
M  V30 18 1 18 19
M  V30 19 2 19 20
M  V30 20 1 20 21
M  V30 21 1 21 22
M  V30 22 2 22 23
M  V30 23 1 23 24
M  V30 24 1 24 25
M  V30 25 1 20 26
M  V30 26 2 26 27
M  V30 27 1 9 28
M  V30 28 2 28 29
M  V30 29 1 29 3
M  V30 30 1 28 6
M  V30 31 1 27 13
M  V30 32 1 27 17
M  V30 33 2 25 21
M  V30 34 1 1 30
M  V30 35 1 1 31
M  V30 36 1 1 32
M  V30 37 1 4 33
M  V30 38 1 5 34
M  V30 39 1 7 35
M  V30 40 1 8 36
M  V30 41 1 10 37
M  V30 42 1 10 38
M  V30 43 1 11 39
M  V30 44 1 11 40
M  V30 45 1 12 41
M  V30 46 1 15 42
M  V30 47 1 18 43
M  V30 48 1 19 44
M  V30 49 1 22 45
M  V30 50 1 23 46
M  V30 51 1 25 47
M  V30 52 1 26 48
M  V30 53 1 29 49
M  V30 END BOND
M  V30 END CTAB
M  END
>  <Dataset>  (788) 
ChEMBL_Kinases

>  <Ligand_Instance>  (788) 
nan

>  <PDB_ID>  (788) 
nan

>  <Standardized_SMILES>  (788) 
COc1ccc2[nH]cc(CCNc3ncnc4ccc(-c5ccoc5)cc34)c2c1

>  <Name>  (788) 
nan

>  <Pocket>  (788) 
nan

>  <ATP_Site>  (788) 
nan

>  <Peripheral>  (788) 
nan

>  <Num_H_Atoms_ProtBoundConf>  (788) 
nan

>  <Num_Resolved_Atoms>  (788) 
nan

>  <Num_Not_Resolved_Atoms>  (788) 
nan

$$$$
CHEMBL1433762
     RDKit          3D

  0  0  0  0  0  0  0  0  0  0999 V3000
M  V30 BEGIN CTAB
M  V30 COUNTS 49 50 0 0 0
M  V30 BEGIN ATOM
M  V30 1 C 2.168104 -5.803428 2.137116 0
M  V30 2 O 1.296083 -4.903193 1.502270 0
M  V30 3 C 1.625078 -3.849716 0.693596 0
M  V30 4 C 2.869129 -3.406883 0.293665 0
M  V30 5 C 3.071267 -2.321930 -0.530260 0
M  V30 6 C 1.986251 -1.617520 -0.998588 0
M  V30 7 C 1.926332 -0.452170 -1.897532 0
M  V30 8 C 2.020209 0.866790 -1.170168 0 CFG=2
M  V30 9 C 3.372590 0.948693 -0.460405 0
M  V30 10 N 0.961437 0.834031 -0.164384 0
M  V30 11 C 0.660076 2.103847 0.393803 0
M  V30 12 C -0.202041 2.025588 1.617560 0 CFG=1
M  V30 13 O -0.542457 3.282986 2.110454 0
M  V30 14 C -1.367464 1.139904 1.539485 0
M  V30 15 C -1.205165 -0.181669 1.969167 0
M  V30 16 C -2.182872 -1.176213 2.005795 0
M  V30 17 C -3.449501 -0.824185 1.571919 0
M  V30 18 O -4.455155 -1.774927 1.588016 0
M  V30 19 C -3.642512 0.465310 1.144015 0
M  V30 20 N -4.967867 0.770690 0.727932 0
M  V30 21 C -5.573487 1.166979 1.985178 0
M  V30 22 O -5.021957 1.209294 3.131438 0
M  V30 23 C -2.646989 1.417761 1.124298 0
M  V30 24 C 0.714689 -2.057806 -0.598828 0
M  V30 25 C 0.513682 -3.158241 0.235873 0
M  V30 26 H 1.687285 -6.224324 3.077309 0
M  V30 27 H 2.486818 -6.660505 1.542143 0
M  V30 28 H 3.026081 -5.202443 2.539732 0
M  V30 29 H 3.704382 -3.971705 0.675555 0
M  V30 30 H 4.020080 -1.960930 -0.850663 0
M  V30 31 H 1.002182 -0.429355 -2.506480 0
M  V30 32 H 2.749734 -0.527531 -2.672725 0
M  V30 33 H 1.900104 1.747107 -1.785373 0
M  V30 34 H 3.322127 0.439087 0.527225 0
M  V30 35 H 3.684975 1.992165 -0.268375 0
M  V30 36 H 4.178893 0.489632 -1.079089 0
M  V30 37 H 1.177005 0.101353 0.551461 0
M  V30 38 H 1.551870 2.713627 0.651039 0
M  V30 39 H 0.083285 2.707576 -0.366993 0
M  V30 40 H 0.484773 1.597927 2.440074 0
M  V30 41 H 0.171322 3.621368 2.670064 0
M  V30 42 H -0.245328 -0.537896 2.330561 0
M  V30 43 H -1.983638 -2.176333 2.350978 0
M  V30 44 H -4.545319 -2.371194 0.779525 0
M  V30 45 H -5.711911 0.857279 0.011705 0
M  V30 46 H -6.560904 1.515328 2.341598 0
M  V30 47 H -2.812734 2.427184 0.780277 0
M  V30 48 H -0.203772 -1.537195 -0.936069 0
M  V30 49 H -0.501872 -3.421660 0.490707 0
M  V30 END ATOM
M  V30 BEGIN BOND
M  V30 1 1 1 2
M  V30 2 1 2 3
M  V30 3 2 3 4
M  V30 4 1 4 5
M  V30 5 2 5 6
M  V30 6 1 6 7
M  V30 7 1 7 8
M  V30 8 1 8 9
M  V30 9 1 8 10
M  V30 10 1 10 11
M  V30 11 1 11 12
M  V30 12 1 12 13
M  V30 13 1 12 14
M  V30 14 2 14 15
M  V30 15 1 15 16
M  V30 16 2 16 17
M  V30 17 1 17 18
M  V30 18 1 17 19
M  V30 19 1 19 20
M  V30 20 1 20 21
M  V30 21 2 21 22
M  V30 22 2 19 23
M  V30 23 1 6 24
M  V30 24 2 24 25
M  V30 25 1 25 3
M  V30 26 1 23 14
M  V30 27 1 1 26
M  V30 28 1 1 27
M  V30 29 1 1 28
M  V30 30 1 4 29
M  V30 31 1 5 30
M  V30 32 1 7 31
M  V30 33 1 7 32
M  V30 34 1 8 33 CFG=3
M  V30 35 1 9 34
M  V30 36 1 9 35
M  V30 37 1 9 36
M  V30 38 1 10 37
M  V30 39 1 11 38
M  V30 40 1 11 39
M  V30 41 1 12 40 CFG=1
M  V30 42 1 13 41
M  V30 43 1 15 42
M  V30 44 1 16 43
M  V30 45 1 18 44
M  V30 46 1 20 45
M  V30 47 1 21 46
M  V30 48 1 23 47
M  V30 49 1 24 48
M  V30 50 1 25 49
M  V30 END BOND
M  V30 END CTAB
M  END
>  <Dataset>  (789) 
ChEMBL_Kinases

>  <Ligand_Instance>  (789) 
nan

>  <PDB_ID>  (789) 
nan

>  <Standardized_SMILES>  (789) 
COc1ccc(C[C@H](C)NC[C@@H](O)c2ccc(O)c(NC=O)c2)cc1

>  <Name>  (789) 
nan

>  <Pocket>  (789) 
nan

>  <ATP_Site>  (789) 
nan

>  <Peripheral>  (789) 
nan

>  <Num_H_Atoms_ProtBoundConf>  (789) 
nan

>  <Num_Resolved_Atoms>  (789) 
nan

>  <Num_Not_Resolved_Atoms>  (789) 
nan

$$$$
CHEMBL1434411
     RDKit          3D

  0  0  0  0  0  0  0  0  0  0999 V3000
M  V30 BEGIN CTAB
M  V30 COUNTS 50 54 0 0 0
M  V30 BEGIN ATOM
M  V30 1 C -1.854975 2.276816 5.820068 0
M  V30 2 O -0.982214 1.198003 5.463286 0
M  V30 3 C -0.503677 1.068874 4.169474 0
M  V30 4 C 0.332400 -0.035737 3.996630 0
M  V30 5 C 0.893305 -0.298720 2.745241 0
M  V30 6 C 0.632349 0.522330 1.668015 0
M  V30 7 N 1.173371 0.307192 0.369670 0
M  V30 8 C 2.017625 1.175663 -0.195041 0
M  V30 9 O 2.302564 2.176459 0.473156 0
M  V30 10 C 2.566634 1.023832 -1.431865 0
M  V30 11 C 3.500506 1.967495 -2.077089 0
M  V30 12 C 4.004743 3.118904 -1.646568 0
M  V30 13 C 4.856441 3.819154 -2.429631 0
M  V30 14 C 5.163944 3.257843 -3.700247 0
M  V30 15 S 4.143852 1.678683 -3.660880 0
M  V30 16 N 2.190803 -0.100245 -2.075412 0
M  V30 17 C 1.355094 -1.001412 -1.566763 0
M  V30 18 C 1.063676 -2.106994 -2.349647 0
M  V30 19 N 0.207859 -3.004626 -1.798066 0
M  V30 20 C -0.315756 -2.821622 -0.572070 0
M  V30 21 N -1.212537 -3.765130 0.002643 0
M  V30 22 C -1.807878 -3.621666 1.317529 0
M  V30 23 C -3.304149 -3.528736 1.234894 0
M  V30 24 N -3.818764 -4.051493 -0.013782 0
M  V30 25 C -3.105280 -5.207647 -0.498343 0
M  V30 26 C -1.625176 -4.978127 -0.676878 0
M  V30 27 N -0.012341 -1.736453 0.163019 0
M  V30 28 C 0.827924 -0.798055 -0.309283 0
M  V30 29 C -0.199722 1.610541 1.866410 0
M  V30 30 C -0.769218 1.897463 3.089681 0
M  V30 31 H -1.436361 3.188976 5.304362 0
M  V30 32 H -2.846207 2.117273 5.364056 0
M  V30 33 H -1.848466 2.455590 6.899853 0
M  V30 34 H 0.605281 -0.744440 4.767157 0
M  V30 35 H 1.548252 -1.138694 2.549621 0
M  V30 36 H 3.757040 3.527913 -0.675388 0
M  V30 37 H 5.348356 4.776371 -2.211155 0
M  V30 38 H 5.863650 3.720225 -4.480542 0
M  V30 39 H 1.465714 -2.282938 -3.333981 0
M  V30 40 H -1.527157 -4.458455 1.991332 0
M  V30 41 H -1.427940 -2.708118 1.809713 0
M  V30 42 H -3.617805 -2.472220 1.344505 0
M  V30 43 H -3.746258 -4.080033 2.107003 0
M  V30 44 H -3.928446 -3.321273 -0.748768 0
M  V30 45 H -3.251822 -6.030279 0.222274 0
M  V30 46 H -3.548489 -5.468552 -1.472241 0
M  V30 47 H -1.054066 -5.825398 -0.234629 0
M  V30 48 H -1.310737 -4.966478 -1.756664 0
M  V30 49 H -0.441497 2.297692 1.043058 0
M  V30 50 H -1.422922 2.728810 3.301551 0
M  V30 END ATOM
M  V30 BEGIN BOND
M  V30 1 1 1 2
M  V30 2 1 2 3
M  V30 3 2 3 4
M  V30 4 1 4 5
M  V30 5 2 5 6
M  V30 6 1 6 7
M  V30 7 1 7 8
M  V30 8 2 8 9
M  V30 9 1 8 10
M  V30 10 1 10 11
M  V30 11 2 11 12
M  V30 12 1 12 13
M  V30 13 2 13 14
M  V30 14 1 14 15
M  V30 15 2 10 16
M  V30 16 1 16 17
M  V30 17 2 17 18
M  V30 18 1 18 19
M  V30 19 2 19 20
M  V30 20 1 20 21
M  V30 21 1 21 22
M  V30 22 1 22 23
M  V30 23 1 23 24
M  V30 24 1 24 25
M  V30 25 1 25 26
M  V30 26 1 20 27
M  V30 27 2 27 28
M  V30 28 1 6 29
M  V30 29 2 29 30
M  V30 30 1 30 3
M  V30 31 1 28 7
M  V30 32 1 15 11
M  V30 33 1 28 17
M  V30 34 1 26 21
M  V30 35 1 1 31
M  V30 36 1 1 32
M  V30 37 1 1 33
M  V30 38 1 4 34
M  V30 39 1 5 35
M  V30 40 1 12 36
M  V30 41 1 13 37
M  V30 42 1 14 38
M  V30 43 1 18 39
M  V30 44 1 22 40
M  V30 45 1 22 41
M  V30 46 1 23 42
M  V30 47 1 23 43
M  V30 48 1 24 44
M  V30 49 1 25 45
M  V30 50 1 25 46
M  V30 51 1 26 47
M  V30 52 1 26 48
M  V30 53 1 29 49
M  V30 54 1 30 50
M  V30 END BOND
M  V30 END CTAB
M  END
>  <Dataset>  (790) 
ChEMBL_Kinases

>  <Ligand_Instance>  (790) 
nan

>  <PDB_ID>  (790) 
nan

>  <Standardized_SMILES>  (790) 
COc1ccc(-n2c(=O)c(-c3cccs3)nc3cnc(N4CCNCC4)nc32)cc1

>  <Name>  (790) 
nan

>  <Pocket>  (790) 
nan

>  <ATP_Site>  (790) 
nan

>  <Peripheral>  (790) 
nan

>  <Num_H_Atoms_ProtBoundConf>  (790) 
nan

>  <Num_Resolved_Atoms>  (790) 
nan

>  <Num_Not_Resolved_Atoms>  (790) 
nan

$$$$
CHEMBL1433941
     RDKit          3D

  0  0  0  0  0  0  0  0  0  0999 V3000
M  V30 BEGIN CTAB
M  V30 COUNTS 41 44 0 0 0
M  V30 BEGIN ATOM
M  V30 1 C 1.850639 -6.571692 -0.205358 0
M  V30 2 C 2.176626 -5.189154 0.284702 0
M  V30 3 C 3.120353 -5.041931 1.292834 0
M  V30 4 C 3.406062 -3.745228 1.731594 0
M  V30 5 C 2.766944 -2.636301 1.177693 0
M  V30 6 C 1.838907 -2.851626 0.178814 0
M  V30 7 C 1.151164 -1.693297 -0.420534 0
M  V30 8 C 0.744831 -1.710672 -1.738366 0
M  V30 9 C 0.100269 -0.634010 -2.311694 0
M  V30 10 C -0.125980 0.470314 -1.515025 0
M  V30 11 N -0.750410 1.539962 -2.033361 0
M  V30 12 C -0.983742 2.638224 -1.267000 0
M  V30 13 N -0.582055 2.636391 0.009506 0
M  V30 14 C 0.045081 1.631790 0.625720 0
M  V30 15 N 0.427205 1.726367 1.968056 0
M  V30 16 C 0.141028 2.929072 2.714276 0
M  V30 17 C -1.241484 3.270863 2.849561 0
M  V30 18 C -2.159924 2.936486 3.786202 0
M  V30 19 C -3.459209 3.367263 3.752909 0
M  V30 20 C -3.770045 4.233895 2.597493 0
M  V30 21 S -2.179455 4.332341 1.697824 0
M  V30 22 C 0.260265 0.538039 -0.191948 0
M  V30 23 C 0.897849 -0.561992 0.326941 0
M  V30 24 C 1.515231 -4.117117 -0.296497 0
M  V30 25 H 2.671149 -7.275316 -0.071290 0
M  V30 26 H 0.925749 -6.866844 0.360077 0
M  V30 27 H 1.489523 -6.489236 -1.264602 0
M  V30 28 H 3.603112 -5.918883 1.707499 0
M  V30 29 H 4.144602 -3.616859 2.522188 0
M  V30 30 H 3.017177 -1.662394 1.544518 0
M  V30 31 H 0.914556 -2.564055 -2.369336 0
M  V30 32 H -0.224063 -0.633441 -3.343518 0
M  V30 33 H -1.494665 3.515540 -1.688213 0
M  V30 34 H 0.918691 0.994239 2.521783 0
M  V30 35 H 0.632345 2.960126 3.705292 0
M  V30 36 H 0.650880 3.755906 2.136049 0
M  V30 37 H -1.851535 2.296856 4.601941 0
M  V30 38 H -4.243368 3.146325 4.456246 0
M  V30 39 H -4.807579 4.649295 2.463480 0
M  V30 40 H 1.225796 -0.587038 1.336774 0
M  V30 41 H 0.790317 -4.298259 -1.078149 0
M  V30 END ATOM
M  V30 BEGIN BOND
M  V30 1 1 1 2
M  V30 2 2 2 3
M  V30 3 1 3 4
M  V30 4 2 4 5
M  V30 5 1 5 6
M  V30 6 1 6 7
M  V30 7 2 7 8
M  V30 8 1 8 9
M  V30 9 2 9 10
M  V30 10 1 10 11
M  V30 11 2 11 12
M  V30 12 1 12 13
M  V30 13 2 13 14
M  V30 14 1 14 15
M  V30 15 1 15 16
M  V30 16 1 16 17
M  V30 17 2 17 18
M  V30 18 1 18 19
M  V30 19 2 19 20
M  V30 20 1 20 21
M  V30 21 1 14 22
M  V30 22 2 22 23
M  V30 23 2 6 24
M  V30 24 1 24 2
M  V30 25 1 23 7
M  V30 26 1 22 10
M  V30 27 1 21 17
M  V30 28 1 1 25
M  V30 29 1 1 26
M  V30 30 1 1 27
M  V30 31 1 3 28
M  V30 32 1 4 29
M  V30 33 1 5 30
M  V30 34 1 8 31
M  V30 35 1 9 32
M  V30 36 1 12 33
M  V30 37 1 15 34
M  V30 38 1 16 35
M  V30 39 1 16 36
M  V30 40 1 18 37
M  V30 41 1 19 38
M  V30 42 1 20 39
M  V30 43 1 23 40
M  V30 44 1 24 41
M  V30 END BOND
M  V30 END CTAB
M  END
>  <Dataset>  (791) 
ChEMBL_Kinases

>  <Ligand_Instance>  (791) 
nan

>  <PDB_ID>  (791) 
nan

>  <Standardized_SMILES>  (791) 
Cc1cccc(-c2ccc3ncnc(NCc4cccs4)c3c2)c1

>  <Name>  (791) 
nan

>  <Pocket>  (791) 
nan

>  <ATP_Site>  (791) 
nan

>  <Peripheral>  (791) 
nan

>  <Num_H_Atoms_ProtBoundConf>  (791) 
nan

>  <Num_Resolved_Atoms>  (791) 
nan

>  <Num_Not_Resolved_Atoms>  (791) 
nan

$$$$
CHEMBL1433958
     RDKit          3D

  0  0  0  0  0  0  0  0  0  0999 V3000
M  V30 BEGIN CTAB
M  V30 COUNTS 79 80 0 0 0
M  V30 BEGIN ATOM
M  V30 1 C 2.334250 -8.061160 0.837404 0
M  V30 2 C 1.522840 -6.798074 0.564905 0
M  V30 3 C 0.501480 -6.986268 -0.509590 0
M  V30 4 C -0.304351 -5.757967 -0.797263 0
M  V30 5 C 0.575224 -4.579347 -1.242724 0
M  V30 6 C -0.369545 -3.438228 -1.491236 0
M  V30 7 C 0.283817 -2.153205 -1.907599 0 CFG=1
M  V30 8 C -0.815485 -1.149532 -2.123519 0
M  V30 9 O -1.647251 -1.432203 -3.055103 0
M  V30 10 O -1.243562 -0.062753 -1.695220 0
M  V30 11 C -1.874393 1.067865 -1.407227 0 CFG=2
M  V30 12 C -0.921138 2.248938 -1.719818 0
M  V30 13 C -2.110902 1.063818 0.122923 0 CFG=2
M  V30 14 N -2.730034 2.255244 0.555878 0
M  V30 15 C -4.002738 2.351207 1.134285 0
M  V30 16 O -4.517427 1.182446 1.218555 0
M  V30 17 C -4.782422 3.472100 1.616698 0
M  V30 18 C -6.030066 3.214033 2.155255 0
M  V30 19 C -6.828991 4.221749 2.635110 0
M  V30 20 C -6.441858 5.542725 2.610154 0
M  V30 21 C -5.202149 5.821743 2.077774 0
M  V30 22 N -4.847444 7.196502 2.073977 0
M  V30 23 C -4.188200 7.637472 3.280435 0
M  V30 24 O -3.962433 6.859153 4.230764 0
M  V30 25 C -4.425727 4.793109 1.606098 0
M  V30 26 O -3.203872 5.143065 1.088004 0
M  V30 27 C -0.744614 0.776971 0.643236 0
M  V30 28 O 0.019048 1.509701 1.364858 0
M  V30 29 O -0.387161 -0.481897 0.201862 0
M  V30 30 C 0.799141 -1.190397 0.380765 0 CFG=1
M  V30 31 C 0.609343 -2.277922 1.393265 0
M  V30 32 C 1.301240 -1.601698 -0.965128 0 CFG=1
M  V30 33 O 2.513210 -2.345321 -0.927751 0
M  V30 34 C 3.717434 -1.770632 -1.358122 0
M  V30 35 O 3.744541 -0.579786 -1.779470 0
M  V30 36 C 5.054528 -2.421602 -1.387239 0
M  V30 37 C 6.121235 -1.624158 -0.680528 0
M  V30 38 C 6.295384 -0.266101 -1.280433 0
M  V30 39 C 5.798732 -1.608493 0.795953 0
M  V30 40 H 1.653812 -8.914403 1.024292 0
M  V30 41 H 2.984621 -8.244038 -0.038515 0
M  V30 42 H 2.930812 -7.848740 1.752985 0
M  V30 43 H 1.045626 -6.454569 1.501806 0
M  V30 44 H 2.279905 -6.031743 0.278572 0
M  V30 45 H -0.235973 -7.749029 -0.116990 0
M  V30 46 H 0.940764 -7.423804 -1.427788 0
M  V30 47 H -0.873790 -5.498460 0.120195 0
M  V30 48 H -1.049590 -5.963116 -1.577587 0
M  V30 49 H 1.015641 -4.844482 -2.234983 0
M  V30 50 H 1.385845 -4.380268 -0.555890 0
M  V30 51 H -1.087125 -3.387985 -0.681493 0
M  V30 52 H -0.976052 -3.771758 -2.408750 0
M  V30 53 H 0.745807 -2.306871 -2.893732 0
M  V30 54 H -2.819671 1.301040 -1.890474 0
M  V30 55 H -1.377760 3.215408 -1.516681 0
M  V30 56 H 0.021021 2.124162 -1.150193 0
M  V30 57 H -0.663382 2.135061 -2.791786 0
M  V30 58 H -2.768672 0.205659 0.303527 0
M  V30 59 H -2.228305 3.164708 0.461719 0
M  V30 60 H -6.419178 2.205688 2.217214 0
M  V30 61 H -7.798976 3.985096 3.051412 0
M  V30 62 H -7.099487 6.301941 2.996609 0
M  V30 63 H -5.090589 7.751048 1.220883 0
M  V30 64 H -3.917759 8.700759 3.266072 0
M  V30 65 H -3.075810 5.325178 0.096947 0
M  V30 66 H 1.528926 -0.463355 0.883070 0
M  V30 67 H -0.414333 -2.697088 1.409789 0
M  V30 68 H 0.716365 -1.845324 2.450391 0
M  V30 69 H 1.340722 -3.083618 1.375479 0
M  V30 70 H 1.633618 -0.611974 -1.445832 0
M  V30 71 H 5.390492 -2.467872 -2.467770 0
M  V30 72 H 5.040055 -3.476886 -1.058658 0
M  V30 73 H 7.078400 -2.210136 -0.814606 0
M  V30 74 H 7.377666 0.057502 -1.223747 0
M  V30 75 H 5.718283 0.460368 -0.650154 0
M  V30 76 H 5.987770 -0.211482 -2.327869 0
M  V30 77 H 5.234296 -0.683506 1.026478 0
M  V30 78 H 5.206087 -2.489261 1.110184 0
M  V30 79 H 6.750691 -1.621228 1.369490 0
M  V30 END ATOM
M  V30 BEGIN BOND
M  V30 1 1 1 2
M  V30 2 1 2 3
M  V30 3 1 3 4
M  V30 4 1 4 5
M  V30 5 1 5 6
M  V30 6 1 6 7
M  V30 7 1 7 8
M  V30 8 2 8 9
M  V30 9 1 8 10
M  V30 10 1 10 11
M  V30 11 1 11 12
M  V30 12 1 11 13
M  V30 13 1 13 14
M  V30 14 1 14 15
M  V30 15 2 15 16
M  V30 16 1 15 17
M  V30 17 2 17 18
M  V30 18 1 18 19
M  V30 19 2 19 20
M  V30 20 1 20 21
M  V30 21 1 21 22
M  V30 22 1 22 23
M  V30 23 2 23 24
M  V30 24 2 21 25
M  V30 25 1 25 26
M  V30 26 1 13 27
M  V30 27 2 27 28
M  V30 28 1 27 29
M  V30 29 1 29 30
M  V30 30 1 30 31
M  V30 31 1 30 32
M  V30 32 1 32 33
M  V30 33 1 33 34
M  V30 34 2 34 35
M  V30 35 1 34 36
M  V30 36 1 36 37
M  V30 37 1 37 38
M  V30 38 1 37 39
M  V30 39 1 32 7
M  V30 40 1 25 17
M  V30 41 1 1 40
M  V30 42 1 1 41
M  V30 43 1 1 42
M  V30 44 1 2 43
M  V30 45 1 2 44
M  V30 46 1 3 45
M  V30 47 1 3 46
M  V30 48 1 4 47
M  V30 49 1 4 48
M  V30 50 1 5 49
M  V30 51 1 5 50
M  V30 52 1 6 51
M  V30 53 1 6 52
M  V30 54 1 7 53 CFG=3
M  V30 55 1 11 54 CFG=3
M  V30 56 1 12 55
M  V30 57 1 12 56
M  V30 58 1 12 57
M  V30 59 1 13 58 CFG=3
M  V30 60 1 14 59
M  V30 61 1 18 60
M  V30 62 1 19 61
M  V30 63 1 20 62
M  V30 64 1 22 63
M  V30 65 1 23 64
M  V30 66 1 26 65
M  V30 67 1 30 66 CFG=1
M  V30 68 1 31 67
M  V30 69 1 31 68
M  V30 70 1 31 69
M  V30 71 1 32 70 CFG=3
M  V30 72 1 36 71
M  V30 73 1 36 72
M  V30 74 1 37 73
M  V30 75 1 38 74
M  V30 76 1 38 75
M  V30 77 1 38 76
M  V30 78 1 39 77
M  V30 79 1 39 78
M  V30 80 1 39 79
M  V30 END BOND
M  V30 END CTAB
M  END
>  <Dataset>  (792) 
ChEMBL_Kinases

>  <Ligand_Instance>  (792) 
nan

>  <PDB_ID>  (792) 
nan

>  <Standardized_SMILES>  (792) 
CCCCCC[C@H]1C(=O)O[C@H](C)[C@H](NC(=O)c2cccc(NC=O)c2O)C(=O)O[C@@H](C)[C@H]1OC(=O)CC(C)C

>  <Name>  (792) 
nan

>  <Pocket>  (792) 
nan

>  <ATP_Site>  (792) 
nan

>  <Peripheral>  (792) 
nan

>  <Num_H_Atoms_ProtBoundConf>  (792) 
nan

>  <Num_Resolved_Atoms>  (792) 
nan

>  <Num_Not_Resolved_Atoms>  (792) 
nan

$$$$
CHEMBL1434006
     RDKit          3D

  0  0  0  0  0  0  0  0  0  0999 V3000
M  V30 BEGIN CTAB
M  V30 COUNTS 40 42 0 0 0
M  V30 BEGIN ATOM
M  V30 1 C 0.174171 -4.942546 2.015535 0
M  V30 2 S 1.649750 -4.898591 1.029644 0
M  V30 3 O 2.794066 -5.183066 1.974604 0
M  V30 4 O 1.620128 -5.937785 -0.061045 0
M  V30 5 N 1.940933 -3.384623 0.305621 0
M  V30 6 C 1.076650 -2.748691 -0.628723 0
M  V30 7 C 0.503286 -3.435932 -1.685264 0
M  V30 8 C -0.333798 -2.758985 -2.564480 0
M  V30 9 C -0.628997 -1.397223 -2.431206 0
M  V30 10 C -0.058189 -0.715296 -1.380268 0
M  V30 11 C -0.367826 0.697537 -1.241674 0
M  V30 12 C 0.114603 1.520477 -0.257706 0
M  V30 13 C -0.166311 2.859201 -0.107926 0
M  V30 14 N 0.335785 3.693523 0.916446 0
M  V30 15 C 1.173578 3.414691 2.052957 0
M  V30 16 C 0.540295 2.518226 3.065062 0
M  V30 17 C 0.545216 1.105917 3.332146 0
M  V30 18 C -0.199701 0.697344 4.376353 0
M  V30 19 C -0.924905 1.642089 5.133838 0
M  V30 20 S -0.505347 3.281892 4.273107 0
M  V30 21 N -0.994795 3.351892 -1.040854 0
M  V30 22 C -1.504770 2.605160 -2.032425 0
M  V30 23 N -1.193993 1.278115 -2.136412 0
M  V30 24 C 0.766745 -1.406983 -0.523597 0
M  V30 25 H 0.373021 -4.663713 3.080832 0
M  V30 26 H -0.633653 -4.319460 1.627421 0
M  V30 27 H -0.167964 -6.004772 2.025610 0
M  V30 28 H 2.797094 -2.799221 0.500959 0
M  V30 29 H 0.705179 -4.500614 -1.829324 0
M  V30 30 H -0.783290 -3.302143 -3.394111 0
M  V30 31 H -1.292630 -0.935503 -3.158041 0
M  V30 32 H 0.776684 1.062016 0.448584 0
M  V30 33 H 0.046534 4.714130 0.843469 0
M  V30 34 H 1.502893 4.351528 2.546484 0
M  V30 35 H 2.130573 2.932158 1.701575 0
M  V30 36 H 1.142852 0.487622 2.688768 0
M  V30 37 H -0.255952 -0.342427 4.650849 0
M  V30 38 H -1.560598 1.400419 6.006077 0
M  V30 39 H -2.163503 3.116956 -2.726724 0
M  V30 40 H 1.229666 -0.901763 0.309664 0
M  V30 END ATOM
M  V30 BEGIN BOND
M  V30 1 1 1 2
M  V30 2 2 2 3
M  V30 3 2 2 4
M  V30 4 1 2 5
M  V30 5 1 5 6
M  V30 6 2 6 7
M  V30 7 1 7 8
M  V30 8 2 8 9
M  V30 9 1 9 10
M  V30 10 1 10 11
M  V30 11 2 11 12
M  V30 12 1 12 13
M  V30 13 1 13 14
M  V30 14 1 14 15
M  V30 15 1 15 16
M  V30 16 2 16 17
M  V30 17 1 17 18
M  V30 18 2 18 19
M  V30 19 1 19 20
M  V30 20 2 13 21
M  V30 21 1 21 22
M  V30 22 2 22 23
M  V30 23 2 10 24
M  V30 24 1 24 6
M  V30 25 1 23 11
M  V30 26 1 20 16
M  V30 27 1 1 25
M  V30 28 1 1 26
M  V30 29 1 1 27
M  V30 30 1 5 28
M  V30 31 1 7 29
M  V30 32 1 8 30
M  V30 33 1 9 31
M  V30 34 1 12 32
M  V30 35 1 14 33
M  V30 36 1 15 34
M  V30 37 1 15 35
M  V30 38 1 17 36
M  V30 39 1 18 37
M  V30 40 1 19 38
M  V30 41 1 22 39
M  V30 42 1 24 40
M  V30 END BOND
M  V30 END CTAB
M  END
>  <Dataset>  (793) 
ChEMBL_Kinases

>  <Ligand_Instance>  (793) 
nan

>  <PDB_ID>  (793) 
nan

>  <Standardized_SMILES>  (793) 
CS(=O)(=O)Nc1cccc(-c2cc(NCc3cccs3)ncn2)c1

>  <Name>  (793) 
nan

>  <Pocket>  (793) 
nan

>  <ATP_Site>  (793) 
nan

>  <Peripheral>  (793) 
nan

>  <Num_H_Atoms_ProtBoundConf>  (793) 
nan

>  <Num_Resolved_Atoms>  (793) 
nan

>  <Num_Not_Resolved_Atoms>  (793) 
nan

$$$$
CHEMBL1434082
     RDKit          3D

  0  0  0  0  0  0  0  0  0  0999 V3000
M  V30 BEGIN CTAB
M  V30 COUNTS 36 38 0 0 0
M  V30 BEGIN ATOM
M  V30 1 C -0.141605 -3.550413 -0.115955 0
M  V30 2 O 0.581717 -2.336422 -0.061252 0
M  V30 3 C 1.442005 -2.000659 0.967984 0
M  V30 4 C 1.742984 -2.747935 2.081136 0
M  V30 5 C 2.629781 -2.297587 3.052418 0
M  V30 6 C 3.200942 -1.059576 2.852216 0
M  V30 7 C 2.904667 -0.286419 1.723747 0
M  V30 8 C 2.005307 -0.764612 0.757065 0
M  V30 9 C 1.873050 0.226382 -0.301573 0
M  V30 10 C 2.685528 0.248286 -1.428710 0
M  V30 11 N 2.515118 1.216007 -2.374166 0
M  V30 12 C 1.558538 2.173495 -2.242065 0
M  V30 13 N 0.751306 2.175373 -1.150823 0
M  V30 14 C 0.891144 1.223437 -0.184071 0
M  V30 15 N 0.003140 1.271395 0.926650 0
M  V30 16 C -1.344720 0.787491 0.769364 0
M  V30 17 C -2.259823 0.636797 1.803769 0
M  V30 18 C -3.534728 0.177756 1.520809 0
M  V30 19 C -3.954649 -0.143890 0.249107 0
M  V30 20 F -5.209550 -0.593397 -0.020598 0
M  V30 21 C -3.056396 -0.002383 -0.807240 0
M  V30 22 C -1.806614 0.453864 -0.485870 0
M  V30 23 H -0.681860 -3.560860 -1.094119 0
M  V30 24 H -0.938950 -3.564363 0.655531 0
M  V30 25 H 0.518463 -4.427694 -0.041311 0
M  V30 26 H 1.247421 -3.692967 2.141626 0
M  V30 27 H 2.842051 -2.911168 3.914328 0
M  V30 28 H 3.879943 -0.751587 3.628647 0
M  V30 29 H 3.442044 0.652154 1.733720 0
M  V30 30 H 3.447690 -0.505465 -1.546769 0
M  V30 31 H 1.419142 2.942936 -2.988458 0
M  V30 32 H 0.216427 1.629305 1.882229 0
M  V30 33 H -1.915178 0.890356 2.787625 0
M  V30 34 H -4.249935 0.061205 2.335862 0
M  V30 35 H -3.366900 -0.249365 -1.809284 0
M  V30 36 H -1.123832 0.553653 -1.336584 0
M  V30 END ATOM
M  V30 BEGIN BOND
M  V30 1 1 1 2
M  V30 2 1 2 3
M  V30 3 2 3 4
M  V30 4 1 4 5
M  V30 5 2 5 6
M  V30 6 1 6 7
M  V30 7 2 7 8
M  V30 8 1 8 9
M  V30 9 2 9 10
M  V30 10 1 10 11
M  V30 11 2 11 12
M  V30 12 1 12 13
M  V30 13 2 13 14
M  V30 14 1 14 15
M  V30 15 1 15 16
M  V30 16 2 16 17
M  V30 17 1 17 18
M  V30 18 2 18 19
M  V30 19 1 19 20
M  V30 20 1 19 21
M  V30 21 2 21 22
M  V30 22 1 8 3
M  V30 23 1 14 9
M  V30 24 1 22 16
M  V30 25 1 1 23
M  V30 26 1 1 24
M  V30 27 1 1 25
M  V30 28 1 4 26
M  V30 29 1 5 27
M  V30 30 1 6 28
M  V30 31 1 7 29
M  V30 32 1 10 30
M  V30 33 1 12 31
M  V30 34 1 15 32
M  V30 35 1 17 33
M  V30 36 1 18 34
M  V30 37 1 21 35
M  V30 38 1 22 36
M  V30 END BOND
M  V30 END CTAB
M  END
>  <Dataset>  (794) 
ChEMBL_Kinases

>  <Ligand_Instance>  (794) 
nan

>  <PDB_ID>  (794) 
nan

>  <Standardized_SMILES>  (794) 
COc1ccccc1-c1cncnc1Nc1ccc(F)cc1

>  <Name>  (794) 
nan

>  <Pocket>  (794) 
nan

>  <ATP_Site>  (794) 
nan

>  <Peripheral>  (794) 
nan

>  <Num_H_Atoms_ProtBoundConf>  (794) 
nan

>  <Num_Resolved_Atoms>  (794) 
nan

>  <Num_Not_Resolved_Atoms>  (794) 
nan

$$$$
CHEMBL1434149
     RDKit          3D

  0  0  0  0  0  0  0  0  0  0999 V3000
M  V30 BEGIN CTAB
M  V30 COUNTS 40 42 0 0 0
M  V30 BEGIN ATOM
M  V30 1 S 1.798758 -1.572851 1.328039 0
M  V30 2 C 0.239668 -1.877367 0.949307 0
M  V30 3 N -0.803883 -1.561754 1.865688 0
M  V30 4 C -2.077972 -1.907800 1.326521 0
M  V30 5 C -2.985350 -2.863517 1.724914 0
M  V30 6 C -4.154869 -3.018536 1.037383 0
M  V30 7 C -4.453184 -2.230252 -0.059631 0
M  V30 8 C -3.573360 -1.256783 -0.497750 0
M  V30 9 C -2.393267 -1.128096 0.224057 0
M  V30 10 N 0.002493 -2.452311 -0.315087 0
M  V30 11 C 1.030666 -2.743146 -1.213229 0
M  V30 12 C 1.502226 -4.028156 -1.524546 0
M  V30 13 C 2.547060 -4.219701 -2.423011 0
M  V30 14 C 3.172772 -3.136772 -3.056131 0
M  V30 15 C 2.766122 -1.805692 -2.806021 0
M  V30 16 C 1.740857 -1.802602 -1.906447 0
M  V30 17 C 1.293779 -0.442614 -1.582888 0
M  V30 18 C 0.897210 0.701951 -1.318787 0
M  V30 19 C 0.399527 2.058535 -1.003506 0
M  V30 20 C -0.131842 2.075209 0.241842 0
M  V30 21 C -0.625503 3.375282 0.517326 0
M  V30 22 C -0.506200 4.379132 -0.454971 0
M  V30 23 C 0.075587 4.169766 -1.690372 0
M  V30 24 C 0.600603 2.897366 -2.060726 0
M  V30 25 H -0.607153 -1.135841 2.795210 0
M  V30 26 H -2.643523 -3.413888 2.593832 0
M  V30 27 H -4.826946 -3.781231 1.392321 0
M  V30 28 H -5.395939 -2.363243 -0.605880 0
M  V30 29 H -3.807499 -0.637515 -1.361074 0
M  V30 30 H -1.748407 -0.340895 -0.177875 0
M  V30 31 H -0.864918 -2.747796 -0.813550 0
M  V30 32 H 1.032465 -4.873820 -1.042768 0
M  V30 33 H 2.890450 -5.247173 -2.637810 0
M  V30 34 H 3.983993 -3.327318 -3.747811 0
M  V30 35 H 3.218803 -0.952983 -3.274709 0
M  V30 36 H -0.202219 1.289440 0.945347 0
M  V30 37 H -1.089575 3.628739 1.454744 0
M  V30 38 H -0.903653 5.381081 -0.192230 0
M  V30 39 H 0.121192 5.015224 -2.377761 0
M  V30 40 H 1.048967 2.717828 -2.993976 0
M  V30 END ATOM
M  V30 BEGIN BOND
M  V30 1 2 1 2
M  V30 2 1 2 3
M  V30 3 1 3 4
M  V30 4 2 4 5
M  V30 5 1 5 6
M  V30 6 2 6 7
M  V30 7 1 7 8
M  V30 8 2 8 9
M  V30 9 1 2 10
M  V30 10 1 10 11
M  V30 11 2 11 12
M  V30 12 1 12 13
M  V30 13 2 13 14
M  V30 14 1 14 15
M  V30 15 2 15 16
M  V30 16 1 16 17
M  V30 17 3 17 18
M  V30 18 1 18 19
M  V30 19 2 19 20
M  V30 20 1 20 21
M  V30 21 2 21 22
M  V30 22 1 22 23
M  V30 23 2 23 24
M  V30 24 1 9 4
M  V30 25 1 16 11
M  V30 26 1 24 19
M  V30 27 1 3 25
M  V30 28 1 5 26
M  V30 29 1 6 27
M  V30 30 1 7 28
M  V30 31 1 8 29
M  V30 32 1 9 30
M  V30 33 1 10 31
M  V30 34 1 12 32
M  V30 35 1 13 33
M  V30 36 1 14 34
M  V30 37 1 15 35
M  V30 38 1 20 36
M  V30 39 1 21 37
M  V30 40 1 22 38
M  V30 41 1 23 39
M  V30 42 1 24 40
M  V30 END BOND
M  V30 END CTAB
M  END
>  <Dataset>  (795) 
ChEMBL_Kinases

>  <Ligand_Instance>  (795) 
nan

>  <PDB_ID>  (795) 
nan

>  <Standardized_SMILES>  (795) 
S=C(Nc1ccccc1)Nc1ccccc1C#Cc1ccccc1

>  <Name>  (795) 
nan

>  <Pocket>  (795) 
nan

>  <ATP_Site>  (795) 
nan

>  <Peripheral>  (795) 
nan

>  <Num_H_Atoms_ProtBoundConf>  (795) 
nan

>  <Num_Resolved_Atoms>  (795) 
nan

>  <Num_Not_Resolved_Atoms>  (795) 
nan

$$$$
CHEMBL1434228
     RDKit          3D

  0  0  0  0  0  0  0  0  0  0999 V3000
M  V30 BEGIN CTAB
M  V30 COUNTS 56 59 0 0 0
M  V30 BEGIN ATOM
M  V30 1 C 1.499203 -1.258995 5.461841 0
M  V30 2 C 1.495029 -2.017091 4.132033 0
M  V30 3 C 1.087585 -1.166713 3.017070 0
M  V30 4 C 1.697633 -0.791450 1.908177 0
M  V30 5 C 3.092423 -1.325019 1.704383 0
M  V30 6 C 2.825604 -2.434137 0.661699 0
M  V30 7 C 2.523954 -1.694361 -0.570794 0 CFG=1
M  V30 8 C 1.508551 -2.317564 -1.482267 0
M  V30 9 O 0.824312 -3.394012 -1.612251 0
M  V30 10 N 1.330696 -1.287506 -2.483027 0
M  V30 11 C 1.055945 -1.345488 -3.919950 0
M  V30 12 C -0.393416 -1.354524 -4.260043 0
M  V30 13 C 1.487702 -0.035314 -1.767340 0
M  V30 14 O 1.222422 1.165378 -2.125385 0
M  V30 15 C 2.048589 -0.277229 -0.425367 0 CFG=1
M  V30 16 C 1.318531 0.124143 0.757451 0 CFG=1
M  V30 17 C -0.060638 0.588126 0.795067 0 CFG=1
M  V30 18 C -0.163338 2.127403 0.925693 0
M  V30 19 C -1.021914 0.237008 -0.265954 0
M  V30 20 O -1.395055 -0.240932 -1.407587 0
M  V30 21 N -2.256631 0.712837 0.352357 0
M  V30 22 C -3.570907 1.210633 -0.116143 0
M  V30 23 C -4.515625 0.100465 -0.259554 0
M  V30 24 O -3.561743 -0.609375 0.126611 0
M  V30 25 O -5.581635 -0.725524 -0.477629 0
M  V30 26 C -5.601596 -2.120686 -0.299816 0
M  V30 27 C -2.093864 0.641691 1.798383 0
M  V30 28 O -2.897227 0.949485 2.749304 0
M  V30 29 N -0.757036 0.119139 2.008801 0
M  V30 30 C -0.288123 -0.668473 3.102913 0
M  V30 31 O -1.046481 -0.903644 4.077442 0
M  V30 32 H 2.533857 -0.954694 5.727615 0
M  V30 33 H 1.158196 -1.931817 6.273769 0
M  V30 34 H 0.807971 -0.412469 5.404950 0
M  V30 35 H 0.658888 -2.773209 4.257342 0
M  V30 36 H 2.389375 -2.619599 4.004487 0
M  V30 37 H 3.511660 -1.814294 2.570480 0
M  V30 38 H 3.724828 -0.554841 1.263500 0
M  V30 39 H 1.955100 -3.030450 0.986970 0
M  V30 40 H 3.724093 -3.073480 0.577855 0
M  V30 41 H 3.468436 -1.738707 -1.203947 0
M  V30 42 H 1.542705 -0.487548 -4.433471 0
M  V30 43 H 1.510612 -2.246060 -4.377182 0
M  V30 44 H -0.837689 -0.330202 -4.316983 0
M  V30 45 H -0.531509 -1.836487 -5.249936 0
M  V30 46 H -0.976074 -1.955158 -3.525194 0
M  V30 47 H 3.043318 0.296301 -0.456995 0
M  V30 48 H 1.901025 1.064438 1.145895 0
M  V30 49 H 0.502515 2.503263 1.732029 0
M  V30 50 H 0.041278 2.554201 -0.069570 0
M  V30 51 H -1.241328 2.369933 1.160196 0
M  V30 52 H -3.371835 1.665317 -1.124894 0
M  V30 53 H -3.929197 2.023998 0.503541 0
M  V30 54 H -4.590558 -2.507522 -0.196173 0
M  V30 55 H -6.011892 -2.588000 -1.231678 0
M  V30 56 H -6.173223 -2.437048 0.594119 0
M  V30 END ATOM
M  V30 BEGIN BOND
M  V30 1 1 1 2
M  V30 2 1 2 3
M  V30 3 2 3 4
M  V30 4 1 4 5
M  V30 5 1 5 6
M  V30 6 1 6 7
M  V30 7 1 7 8
M  V30 8 2 8 9
M  V30 9 1 8 10
M  V30 10 1 10 11
M  V30 11 1 11 12
M  V30 12 1 10 13
M  V30 13 2 13 14
M  V30 14 1 13 15
M  V30 15 1 15 16
M  V30 16 1 16 17
M  V30 17 1 17 18 CFG=1
M  V30 18 1 17 19
M  V30 19 2 19 20
M  V30 20 1 19 21
M  V30 21 1 21 22
M  V30 22 1 22 23
M  V30 23 2 23 24
M  V30 24 1 23 25
M  V30 25 1 25 26
M  V30 26 1 21 27
M  V30 27 2 27 28
M  V30 28 1 27 29
M  V30 29 1 29 30
M  V30 30 2 30 31
M  V30 31 1 30 3
M  V30 32 1 16 4
M  V30 33 1 29 17
M  V30 34 1 15 7
M  V30 35 1 1 32
M  V30 36 1 1 33
M  V30 37 1 1 34
M  V30 38 1 2 35
M  V30 39 1 2 36
M  V30 40 1 5 37
M  V30 41 1 5 38
M  V30 42 1 6 39
M  V30 43 1 6 40
M  V30 44 1 7 41 CFG=3
M  V30 45 1 11 42
M  V30 46 1 11 43
M  V30 47 1 12 44
M  V30 48 1 12 45
M  V30 49 1 12 46
M  V30 50 1 15 47 CFG=3
M  V30 51 1 16 48 CFG=1
M  V30 52 1 18 49
M  V30 53 1 18 50
M  V30 54 1 18 51
M  V30 55 1 22 52
M  V30 56 1 22 53
M  V30 57 1 26 54
M  V30 58 1 26 55
M  V30 59 1 26 56
M  V30 END BOND
M  V30 END CTAB
M  END
>  <Dataset>  (796) 
ChEMBL_Kinases

>  <Ligand_Instance>  (796) 
nan

>  <PDB_ID>  (796) 
nan

>  <Standardized_SMILES>  (796) 
CCC1=C2CC[C@H]3C(=O)N(CC)C(=O)[C@H]3[C@H]2[C@@]2(C)C(=O)N(CC(=O)OC)C(=O)N2C1=O

>  <Name>  (796) 
nan

>  <Pocket>  (796) 
nan

>  <ATP_Site>  (796) 
nan

>  <Peripheral>  (796) 
nan

>  <Num_H_Atoms_ProtBoundConf>  (796) 
nan

>  <Num_Resolved_Atoms>  (796) 
nan

>  <Num_Not_Resolved_Atoms>  (796) 
nan

$$$$
CHEMBL1434292
     RDKit          3D

  0  0  0  0  0  0  0  0  0  0999 V3000
M  V30 BEGIN CTAB
M  V30 COUNTS 27 29 0 0 0
M  V30 BEGIN ATOM
M  V30 1 O 2.543262 -3.755052 -0.472823 0
M  V30 2 C 1.931758 -3.018600 0.356090 0
M  V30 3 N 1.933560 -3.284967 1.759969 0
M  V30 4 C 1.169418 -2.297953 2.440576 0
M  V30 5 C 0.873021 -2.116905 3.778679 0
M  V30 6 C 0.089563 -1.056584 4.219046 0
M  V30 7 C -0.395825 -0.169738 3.268030 0
M  V30 8 C -0.068469 -0.398808 1.945135 0
M  V30 9 C 0.697250 -1.432247 1.499380 0
M  V30 10 C 1.120904 -1.799401 0.163551 0
M  V30 11 N 0.907776 -1.274904 -0.973145 0
M  V30 12 C 0.156946 -0.124853 -1.263852 0
M  V30 13 C 0.867944 1.058560 -1.285790 0
M  V30 14 C 0.156039 2.225407 -1.571404 0
M  V30 15 C -1.199956 2.151355 -1.815065 0
M  V30 16 F -1.881842 3.306309 -2.093478 0
M  V30 17 C -1.862986 0.941484 -1.780707 0
M  V30 18 C -1.198246 -0.257159 -1.499744 0
M  V30 19 H 2.410926 -4.076813 2.267700 0
M  V30 20 H 1.222944 -2.774290 4.560287 0
M  V30 21 H -0.163455 -0.883599 5.263182 0
M  V30 22 H -1.015159 0.674682 3.582954 0
M  V30 23 H -0.470562 0.318918 1.247627 0
M  V30 24 H 1.915196 1.108036 -1.096616 0
M  V30 25 H 0.702963 3.158118 -1.591209 0
M  V30 26 H -2.933642 0.858515 -1.969887 0
M  V30 27 H -1.663666 -1.223872 -1.460253 0
M  V30 END ATOM
M  V30 BEGIN BOND
M  V30 1 2 1 2
M  V30 2 1 2 3
M  V30 3 1 3 4
M  V30 4 2 4 5
M  V30 5 1 5 6
M  V30 6 2 6 7
M  V30 7 1 7 8
M  V30 8 2 8 9
M  V30 9 1 9 10
M  V30 10 2 10 11 CFG=2
M  V30 11 1 11 12
M  V30 12 2 12 13
M  V30 13 1 13 14
M  V30 14 2 14 15
M  V30 15 1 15 16
M  V30 16 1 15 17
M  V30 17 2 17 18
M  V30 18 1 10 2
M  V30 19 1 18 12
M  V30 20 1 9 4
M  V30 21 1 3 19
M  V30 22 1 5 20
M  V30 23 1 6 21
M  V30 24 1 7 22
M  V30 25 1 8 23
M  V30 26 1 13 24
M  V30 27 1 14 25
M  V30 28 1 17 26
M  V30 29 1 18 27
M  V30 END BOND
M  V30 END CTAB
M  END
>  <Dataset>  (797) 
ChEMBL_Kinases

>  <Ligand_Instance>  (797) 
nan

>  <PDB_ID>  (797) 
nan

>  <Standardized_SMILES>  (797) 
O=C1Nc2ccccc2C1=Nc1ccc(F)cc1

>  <Name>  (797) 
nan

>  <Pocket>  (797) 
nan

>  <ATP_Site>  (797) 
nan

>  <Peripheral>  (797) 
nan

>  <Num_H_Atoms_ProtBoundConf>  (797) 
nan

>  <Num_Resolved_Atoms>  (797) 
nan

>  <Num_Not_Resolved_Atoms>  (797) 
nan

$$$$
CHEMBL1434389
     RDKit          3D

  0  0  0  0  0  0  0  0  0  0999 V3000
M  V30 BEGIN CTAB
M  V30 COUNTS 38 41 0 0 0
M  V30 BEGIN ATOM
M  V30 1 F 2.968863 -3.713819 4.886373 0
M  V30 2 C 2.776896 -3.714197 3.556432 0
M  V30 3 C 2.477647 -4.946490 2.985807 0
M  V30 4 C 2.272293 -5.000640 1.629207 0
M  V30 5 C 2.351206 -3.894770 0.827624 0
M  V30 6 C 2.648870 -2.675959 1.403827 0
M  V30 7 C 2.749643 -1.438409 0.595680 0
M  V30 8 N 1.479272 -0.734205 0.476002 0
M  V30 9 C 1.430863 0.469725 -0.272903 0
M  V30 10 N 2.538442 0.946924 -0.861099 0
M  V30 11 C 2.581532 2.065836 -1.581422 0
M  V30 12 N 1.455391 2.800378 -1.756455 0
M  V30 13 C 0.290723 2.396682 -1.200058 0
M  V30 14 C -0.871082 3.131977 -1.366092 0
M  V30 15 C -2.045493 2.698612 -0.788053 0
M  V30 16 C -2.061122 1.521532 -0.037834 0
M  V30 17 C -3.305751 1.038032 0.590050 0
M  V30 18 C -3.325475 0.315467 1.788276 0
M  V30 19 C -4.675637 0.050811 2.036733 0
M  V30 20 O -5.379160 0.577548 1.061447 0
M  V30 21 C -4.619382 1.168216 0.187414 0
M  V30 22 C -0.881133 0.819693 0.102227 0
M  V30 23 C 0.295842 1.227149 -0.460090 0
M  V30 24 C 2.862081 -2.585093 2.769898 0
M  V30 25 H 2.390651 -5.879445 3.520795 0
M  V30 26 H 2.037242 -5.940627 1.146183 0
M  V30 27 H 2.182334 -3.979569 -0.239558 0
M  V30 28 H 3.022649 -1.783616 -0.438291 0
M  V30 29 H 3.550468 -0.753074 0.923312 0
M  V30 30 H 0.689701 -1.193879 0.969060 0
M  V30 31 H 3.553163 2.351178 -2.012987 0
M  V30 32 H -0.855438 4.058197 -1.957217 0
M  V30 33 H -2.976964 3.248721 -0.896237 0
M  V30 34 H -2.442883 0.040507 2.370609 0
M  V30 35 H -5.044117 -0.499106 2.898513 0
M  V30 36 H -4.802147 1.706132 -0.732479 0
M  V30 37 H -0.944247 -0.066267 0.680140 0
M  V30 38 H 3.098981 -1.655284 3.277348 0
M  V30 END ATOM
M  V30 BEGIN BOND
M  V30 1 1 1 2
M  V30 2 2 2 3
M  V30 3 1 3 4
M  V30 4 2 4 5
M  V30 5 1 5 6
M  V30 6 1 6 7
M  V30 7 1 7 8
M  V30 8 1 8 9
M  V30 9 2 9 10
M  V30 10 1 10 11
M  V30 11 2 11 12
M  V30 12 1 12 13
M  V30 13 2 13 14
M  V30 14 1 14 15
M  V30 15 2 15 16
M  V30 16 1 16 17
M  V30 17 1 17 18
M  V30 18 2 18 19
M  V30 19 1 19 20
M  V30 20 1 20 21
M  V30 21 1 16 22
M  V30 22 2 22 23
M  V30 23 2 6 24
M  V30 24 1 24 2
M  V30 25 1 23 9
M  V30 26 1 23 13
M  V30 27 2 21 17
M  V30 28 1 3 25
M  V30 29 1 4 26
M  V30 30 1 5 27
M  V30 31 1 7 28
M  V30 32 1 7 29
M  V30 33 1 8 30
M  V30 34 1 11 31
M  V30 35 1 14 32
M  V30 36 1 15 33
M  V30 37 1 18 34
M  V30 38 1 19 35
M  V30 39 1 21 36
M  V30 40 1 22 37
M  V30 41 1 24 38
M  V30 END BOND
M  V30 END CTAB
M  END
>  <Dataset>  (798) 
ChEMBL_Kinases

>  <Ligand_Instance>  (798) 
nan

>  <PDB_ID>  (798) 
nan

>  <Standardized_SMILES>  (798) 
Fc1cccc(CNc2ncnc3ccc(-c4ccoc4)cc23)c1

>  <Name>  (798) 
nan

>  <Pocket>  (798) 
nan

>  <ATP_Site>  (798) 
nan

>  <Peripheral>  (798) 
nan

>  <Num_H_Atoms_ProtBoundConf>  (798) 
nan

>  <Num_Resolved_Atoms>  (798) 
nan

>  <Num_Not_Resolved_Atoms>  (798) 
nan

$$$$
CHEMBL1433805
     RDKit          3D

  0  0  0  0  0  0  0  0  0  0999 V3000
M  V30 BEGIN CTAB
M  V30 COUNTS 38 41 0 0 0
M  V30 BEGIN ATOM
M  V30 1 O 0.653980 -1.135037 2.355352 0
M  V30 2 C 0.441010 -0.181775 1.575208 0
M  V30 3 C 1.576926 0.439420 1.134495 0
M  V30 4 C 2.920971 0.039125 1.528691 0
M  V30 5 C 3.282631 -0.250869 2.809497 0
M  V30 6 C 4.581980 -0.625833 3.113400 0
M  V30 7 C 5.549876 -0.720299 2.148583 0
M  V30 8 C 5.172579 -0.424632 0.856641 0
M  V30 9 Cl 6.352884 -0.518677 -0.456284 0
M  V30 10 C 3.883985 -0.049025 0.531109 0
M  V30 11 N 1.440533 1.493717 0.276993 0
M  V30 12 C 0.199642 1.884550 -0.104020 0
M  V30 13 C 0.102869 2.946878 -0.965490 0
M  V30 14 N -1.127000 3.311452 -1.324325 0
M  V30 15 C -2.213312 2.672991 -0.867015 0
M  V30 16 N -2.091915 1.630956 -0.020617 0
M  V30 17 C -0.887901 1.197049 0.392728 0
M  V30 18 N -0.817402 0.155646 1.236304 0
M  V30 19 C -1.978605 -0.549719 1.743208 0
M  V30 20 C -2.353159 -1.680071 0.857943 0
M  V30 21 C -3.232958 -1.583623 -0.200645 0
M  V30 22 C -3.571577 -2.644060 -1.015417 0
M  V30 23 C -3.016907 -3.885656 -0.786236 0
M  V30 24 F -3.324329 -4.950971 -1.564015 0
M  V30 25 C -2.125838 -4.038196 0.265583 0
M  V30 26 C -1.821519 -2.948751 1.048447 0
M  V30 27 H 2.496543 -0.164902 3.533479 0
M  V30 28 H 4.830878 -0.848575 4.144138 0
M  V30 29 H 6.560829 -1.009905 2.371295 0
M  V30 30 H 3.628176 0.172486 -0.480532 0
M  V30 31 H 0.993256 3.450740 -1.324642 0
M  V30 32 H -3.164383 3.030079 -1.205074 0
M  V30 33 H -2.827270 0.179821 1.669991 0
M  V30 34 H -1.853969 -0.871745 2.795892 0
M  V30 35 H -3.684667 -0.634897 -0.409884 0
M  V30 36 H -4.269440 -2.529133 -1.840844 0
M  V30 37 H -1.703711 -5.019552 0.426488 0
M  V30 38 H -1.128966 -3.160141 1.831755 0
M  V30 END ATOM
M  V30 BEGIN BOND
M  V30 1 2 1 2
M  V30 2 1 2 3
M  V30 3 1 3 4
M  V30 4 2 4 5
M  V30 5 1 5 6
M  V30 6 2 6 7
M  V30 7 1 7 8
M  V30 8 1 8 9
M  V30 9 2 8 10
M  V30 10 2 3 11
M  V30 11 1 11 12
M  V30 12 2 12 13
M  V30 13 1 13 14
M  V30 14 2 14 15
M  V30 15 1 15 16
M  V30 16 2 16 17
M  V30 17 1 17 18
M  V30 18 1 18 19
M  V30 19 1 19 20
M  V30 20 2 20 21
M  V30 21 1 21 22
M  V30 22 2 22 23
M  V30 23 1 23 24
M  V30 24 1 23 25
M  V30 25 2 25 26
M  V30 26 1 18 2
M  V30 27 1 26 20
M  V30 28 1 10 4
M  V30 29 1 17 12
M  V30 30 1 5 27
M  V30 31 1 6 28
M  V30 32 1 7 29
M  V30 33 1 10 30
M  V30 34 1 13 31
M  V30 35 1 15 32
M  V30 36 1 19 33
M  V30 37 1 19 34
M  V30 38 1 21 35
M  V30 39 1 22 36
M  V30 40 1 25 37
M  V30 41 1 26 38
M  V30 END BOND
M  V30 END CTAB
M  END
>  <Dataset>  (799) 
ChEMBL_Kinases

>  <Ligand_Instance>  (799) 
nan

>  <PDB_ID>  (799) 
nan

>  <Standardized_SMILES>  (799) 
O=c1c(-c2cccc(Cl)c2)nc2cncnc2n1Cc1ccc(F)cc1

>  <Name>  (799) 
nan

>  <Pocket>  (799) 
nan

>  <ATP_Site>  (799) 
nan

>  <Peripheral>  (799) 
nan

>  <Num_H_Atoms_ProtBoundConf>  (799) 
nan

>  <Num_Resolved_Atoms>  (799) 
nan

>  <Num_Not_Resolved_Atoms>  (799) 
nan

$$$$
CHEMBL1500595
     RDKit          3D

  0  0  0  0  0  0  0  0  0  0999 V3000
M  V30 BEGIN CTAB
M  V30 COUNTS 34 35 0 0 0
M  V30 BEGIN ATOM
M  V30 1 C -2.295700 -4.242715 2.938713 0
M  V30 2 C -1.392410 -4.158803 1.764257 0
M  V30 3 O -1.150949 -5.260372 1.206902 0
M  V30 4 C -0.780774 -2.958970 1.217040 0
M  V30 5 C 0.054442 -2.989859 0.112932 0
M  V30 6 C 0.477285 -4.161077 -0.693495 0
M  V30 7 N 0.436537 -1.711565 -0.114975 0
M  V30 8 C -0.091638 -0.858009 0.762004 0
M  V30 9 C 0.153845 0.579088 0.749134 0
M  V30 10 O -0.344706 1.379762 1.577258 0
M  V30 11 O 0.961901 1.170877 -0.185660 0
M  V30 12 C 1.258299 2.524091 -0.283561 0
M  V30 13 C 0.806393 3.187197 -1.556573 0
M  V30 14 C 1.512461 4.532163 -1.365705 0
M  V30 15 O 2.795440 4.153670 -0.851100 0
M  V30 16 C 2.667214 2.898868 -0.223957 0
M  V30 17 O 3.655176 2.305445 0.261536 0
M  V30 18 C -0.857262 -1.636995 1.600704 0
M  V30 19 C -1.643652 -1.123375 2.739342 0
M  V30 20 H -2.301665 -5.264617 3.378873 0
M  V30 21 H -1.940963 -3.596655 3.795405 0
M  V30 22 H -3.306919 -3.886482 2.687444 0
M  V30 23 H 0.880832 -3.778739 -1.652126 0
M  V30 24 H -0.364793 -4.834736 -0.946976 0
M  V30 25 H 1.286284 -4.728532 -0.205756 0
M  V30 26 H 1.086559 -1.438688 -0.910434 0
M  V30 27 H 0.719750 3.054017 0.538760 0
M  V30 28 H 1.223623 2.758822 -2.475754 0
M  V30 29 H -0.278195 3.303542 -1.629399 0
M  V30 30 H 0.949662 5.066356 -0.572548 0
M  V30 31 H 1.588315 5.101459 -2.291967 0
M  V30 32 H -1.877396 -0.023445 2.609856 0
M  V30 33 H -1.212474 -1.323158 3.730263 0
M  V30 34 H -2.676127 -1.582048 2.747808 0
M  V30 END ATOM
M  V30 BEGIN BOND
M  V30 1 1 1 2
M  V30 2 2 2 3
M  V30 3 1 2 4
M  V30 4 2 4 5
M  V30 5 1 5 6
M  V30 6 1 5 7
M  V30 7 1 7 8
M  V30 8 1 8 9
M  V30 9 2 9 10
M  V30 10 1 9 11
M  V30 11 1 11 12
M  V30 12 1 12 13
M  V30 13 1 13 14
M  V30 14 1 14 15
M  V30 15 1 15 16
M  V30 16 2 16 17
M  V30 17 2 8 18
M  V30 18 1 18 19
M  V30 19 1 18 4
M  V30 20 1 16 12
M  V30 21 1 1 20
M  V30 22 1 1 21
M  V30 23 1 1 22
M  V30 24 1 6 23
M  V30 25 1 6 24
M  V30 26 1 6 25
M  V30 27 1 7 26
M  V30 28 1 12 27
M  V30 29 1 13 28
M  V30 30 1 13 29
M  V30 31 1 14 30
M  V30 32 1 14 31
M  V30 33 1 19 32
M  V30 34 1 19 33
M  V30 35 1 19 34
M  V30 END BOND
M  V30 END CTAB
M  END
>  <Dataset>  (800) 
ChEMBL_Kinases

>  <Ligand_Instance>  (800) 
nan

>  <PDB_ID>  (800) 
nan

>  <Standardized_SMILES>  (800) 
CC(=O)c1c(C)[nH]c(C(=O)OC2CCOC2=O)c1C

>  <Name>  (800) 
nan

>  <Pocket>  (800) 
nan

>  <ATP_Site>  (800) 
nan

>  <Peripheral>  (800) 
nan

>  <Num_H_Atoms_ProtBoundConf>  (800) 
nan

>  <Num_Resolved_Atoms>  (800) 
nan

>  <Num_Not_Resolved_Atoms>  (800) 
nan

$$$$
CHEMBL1500591
     RDKit          3D

  0  0  0  0  0  0  0  0  0  0999 V3000
M  V30 BEGIN CTAB
M  V30 COUNTS 45 49 0 0 0
M  V30 BEGIN ATOM
M  V30 1 C 3.194460 -2.633088 0.868550 0
M  V30 2 C 2.871961 -3.110202 -0.390512 0
M  V30 3 C 2.645732 -2.210020 -1.410922 0
M  V30 4 C 2.741780 -0.880289 -1.167895 0
M  V30 5 C 3.060587 -0.367998 0.071913 0
M  V30 6 C 3.291013 -1.262600 1.108944 0
M  V30 7 C 3.195003 1.062889 0.448440 0
M  V30 8 C 2.278069 1.880524 -0.386339 0
M  V30 9 N 1.667910 1.252766 -1.500584 0
M  V30 10 C 0.428052 0.574056 -1.266848 0
M  V30 11 C -0.656745 1.386156 -0.723447 0
M  V30 12 N -1.497572 2.130318 -1.462631 0
M  V30 13 N -2.327210 2.698374 -0.620237 0
M  V30 14 N -2.022879 2.329234 0.587328 0
M  V30 15 N -0.986136 1.509355 0.569070 0
M  V30 16 C -0.469731 0.945171 1.791200 0
M  V30 17 C -1.162478 -0.323475 2.154546 0
M  V30 18 C -0.803864 -1.617963 1.834054 0
M  V30 19 C -1.574056 -2.676063 2.257826 0
M  V30 20 C -2.721254 -2.528887 3.007908 0
M  V30 21 C -3.108277 -1.249230 3.345822 0
M  V30 22 C -2.331384 -0.195495 2.917360 0
M  V30 23 O -4.262667 -1.363312 4.082584 0
M  V30 24 C -4.855233 -2.648935 3.841485 0
M  V30 25 O -3.661626 -3.392281 3.554875 0
M  V30 26 C 2.533196 0.254896 -2.134682 0
M  V30 27 H 3.352330 -3.411717 1.597569 0
M  V30 28 H 2.784367 -4.172765 -0.628922 0
M  V30 29 H 2.389834 -2.451828 -2.425132 0
M  V30 30 H 3.550781 -1.067324 2.144195 0
M  V30 31 H 2.961054 1.222538 1.521061 0
M  V30 32 H 4.283346 1.300901 0.253046 0
M  V30 33 H 2.906088 2.727912 -0.797154 0
M  V30 34 H 1.554052 2.406258 0.281655 0
M  V30 35 H 0.078262 0.113350 -2.221190 0
M  V30 36 H 0.675512 -0.224745 -0.513290 0
M  V30 37 H 0.613787 0.763439 1.707796 0
M  V30 38 H -0.595211 1.639933 2.641745 0
M  V30 39 H 0.084422 -1.707126 1.257026 0
M  V30 40 H -1.250938 -3.672585 1.980714 0
M  V30 41 H -2.700093 0.782160 3.222585 0
M  V30 42 H -5.548671 -2.603573 3.002073 0
M  V30 43 H -5.263755 -3.089857 4.771688 0
M  V30 44 H 3.484563 0.682202 -2.449497 0
M  V30 45 H 2.002453 -0.174078 -3.003627 0
M  V30 END ATOM
M  V30 BEGIN BOND
M  V30 1 2 1 2
M  V30 2 1 2 3
M  V30 3 2 3 4
M  V30 4 1 4 5
M  V30 5 2 5 6
M  V30 6 1 5 7
M  V30 7 1 7 8
M  V30 8 1 8 9
M  V30 9 1 9 10
M  V30 10 1 10 11
M  V30 11 2 11 12
M  V30 12 1 12 13
M  V30 13 2 13 14
M  V30 14 1 14 15
M  V30 15 1 15 16
M  V30 16 1 16 17
M  V30 17 2 17 18
M  V30 18 1 18 19
M  V30 19 2 19 20
M  V30 20 1 20 21
M  V30 21 2 21 22
M  V30 22 1 21 23
M  V30 23 1 23 24
M  V30 24 1 24 25
M  V30 25 1 9 26
M  V30 26 1 6 1
M  V30 27 1 15 11
M  V30 28 1 22 17
M  V30 29 1 26 4
M  V30 30 1 25 20
M  V30 31 1 1 27
M  V30 32 1 2 28
M  V30 33 1 3 29
M  V30 34 1 6 30
M  V30 35 1 7 31
M  V30 36 1 7 32
M  V30 37 1 8 33
M  V30 38 1 8 34
M  V30 39 1 10 35
M  V30 40 1 10 36
M  V30 41 1 16 37
M  V30 42 1 16 38
M  V30 43 1 18 39
M  V30 44 1 19 40
M  V30 45 1 22 41
M  V30 46 1 24 42
M  V30 47 1 24 43
M  V30 48 1 26 44
M  V30 49 1 26 45
M  V30 END BOND
M  V30 END CTAB
M  END
>  <Dataset>  (801) 
ChEMBL_Kinases

>  <Ligand_Instance>  (801) 
nan

>  <PDB_ID>  (801) 
nan

>  <Standardized_SMILES>  (801) 
c1ccc2c(c1)CCN(Cc1nnnn1Cc1ccc3c(c1)OCO3)C2

>  <Name>  (801) 
nan

>  <Pocket>  (801) 
nan

>  <ATP_Site>  (801) 
nan

>  <Peripheral>  (801) 
nan

>  <Num_H_Atoms_ProtBoundConf>  (801) 
nan

>  <Num_Resolved_Atoms>  (801) 
nan

>  <Num_Not_Resolved_Atoms>  (801) 
nan

$$$$
CHEMBL1500576
     RDKit          3D

  0  0  0  0  0  0  0  0  0  0999 V3000
M  V30 BEGIN CTAB
M  V30 COUNTS 47 49 0 0 0
M  V30 BEGIN ATOM
M  V30 1 C 0.118228 -3.428570 2.881293 0
M  V30 2 C -0.562079 -3.214565 1.580658 0
M  V30 3 C -0.160276 -2.387751 0.459622 0
M  V30 4 C 0.920902 -1.681841 0.402887 0
M  V30 5 S 2.184427 -1.554718 1.696289 0
M  V30 6 C 3.496334 -1.072295 0.552897 0
M  V30 7 S 5.077264 -1.297297 0.874890 0
M  V30 8 N 2.801641 -0.505221 -0.579156 0
M  V30 9 C 3.628543 0.318103 -1.431399 0
M  V30 10 C 3.736860 1.756362 -1.004787 0
M  V30 11 C 2.406460 2.378087 -1.000745 0
M  V30 12 O 1.143834 2.504936 -1.131739 0
M  V30 13 N 2.595416 3.741023 -0.578985 0
M  V30 14 C 1.393930 4.561147 -0.496304 0
M  V30 15 N 0.635479 5.296883 -1.041015 0
M  V30 16 C -0.426831 5.849637 -0.506757 0
M  V30 17 C -1.347649 6.768347 -1.253773 0
M  V30 18 C -0.709019 5.548411 0.853301 0
M  V30 19 S 0.722156 4.385478 1.269393 0
M  V30 20 C 1.427055 -0.829384 -0.663113 0
M  V30 21 O 0.661868 -0.430226 -1.580959 0
M  V30 22 C -1.685990 -3.873073 1.421731 0
M  V30 23 C -2.389452 -4.786705 2.299545 0
M  V30 24 C -1.716484 -5.760350 2.963147 0
M  V30 25 C -2.304883 -6.677100 3.840773 0
M  V30 26 C -3.664870 -6.584537 4.045438 0
M  V30 27 C -4.358504 -5.602325 3.378515 0
M  V30 28 C -3.774960 -4.680402 2.497892 0
M  V30 29 H 1.003143 -4.061096 2.796838 0
M  V30 30 H 0.481664 -2.419735 3.253812 0
M  V30 31 H -0.604224 -3.721159 3.678847 0
M  V30 32 H -0.757885 -2.306716 -0.428316 0
M  V30 33 H 4.632676 -0.139347 -1.606254 0
M  V30 34 H 3.191656 0.358429 -2.478676 0
M  V30 35 H 4.135436 1.743911 0.041621 0
M  V30 36 H 4.416248 2.336011 -1.661259 0
M  V30 37 H 3.440602 4.335504 -0.296024 0
M  V30 38 H -1.427134 7.751633 -0.741810 0
M  V30 39 H -2.374118 6.332328 -1.262574 0
M  V30 40 H -1.039839 6.929629 -2.281438 0
M  V30 41 H -1.604180 5.968043 1.430959 0
M  V30 42 H -2.272319 -3.788059 0.494833 0
M  V30 43 H -0.649900 -5.946645 2.886383 0
M  V30 44 H -1.796503 -7.459852 4.380849 0
M  V30 45 H -4.245835 -7.231858 4.699227 0
M  V30 46 H -5.444182 -5.446891 3.475376 0
M  V30 47 H -4.344616 -3.920454 1.989665 0
M  V30 END ATOM
M  V30 BEGIN BOND
M  V30 1 1 1 2
M  V30 2 1 2 3
M  V30 3 2 3 4
M  V30 4 1 4 5
M  V30 5 1 5 6
M  V30 6 2 6 7
M  V30 7 1 6 8
M  V30 8 1 8 9
M  V30 9 1 9 10
M  V30 10 1 10 11
M  V30 11 2 11 12
M  V30 12 1 11 13
M  V30 13 1 13 14
M  V30 14 2 14 15
M  V30 15 1 15 16
M  V30 16 1 16 17
M  V30 17 2 16 18
M  V30 18 1 18 19
M  V30 19 1 8 20
M  V30 20 2 20 21
M  V30 21 2 2 22
M  V30 22 1 22 23
M  V30 23 2 23 24
M  V30 24 1 24 25
M  V30 25 2 25 26
M  V30 26 1 26 27
M  V30 27 2 27 28
M  V30 28 1 20 4
M  V30 29 1 28 23
M  V30 30 1 19 14
M  V30 31 1 1 29
M  V30 32 1 1 30
M  V30 33 1 1 31
M  V30 34 1 3 32
M  V30 35 1 9 33
M  V30 36 1 9 34
M  V30 37 1 10 35
M  V30 38 1 10 36
M  V30 39 1 13 37
M  V30 40 1 17 38
M  V30 41 1 17 39
M  V30 42 1 17 40
M  V30 43 1 18 41
M  V30 44 1 22 42
M  V30 45 1 24 43
M  V30 46 1 25 44
M  V30 47 1 26 45
M  V30 48 1 27 46
M  V30 49 1 28 47
M  V30 END BOND
M  V30 END CTAB
M  END
>  <Dataset>  (802) 
ChEMBL_Kinases

>  <Ligand_Instance>  (802) 
nan

>  <PDB_ID>  (802) 
nan

>  <Standardized_SMILES>  (802) 
CC(/C=C1\SC(=S)N(CCC(=O)Nc2nc(C)cs2)C1=O)=C\c1ccccc1

>  <Name>  (802) 
nan

>  <Pocket>  (802) 
nan

>  <ATP_Site>  (802) 
nan

>  <Peripheral>  (802) 
nan

>  <Num_H_Atoms_ProtBoundConf>  (802) 
nan

>  <Num_Resolved_Atoms>  (802) 
nan

>  <Num_Not_Resolved_Atoms>  (802) 
nan

$$$$
CHEMBL1500551
     RDKit          3D

  0  0  0  0  0  0  0  0  0  0999 V3000
M  V30 BEGIN CTAB
M  V30 COUNTS 37 39 0 0 0
M  V30 BEGIN ATOM
M  V30 1 C 2.885210 -0.913264 4.588388 0
M  V30 2 C 3.439664 -2.143472 3.878443 0
M  V30 3 O 2.884728 -2.101768 2.587073 0
M  V30 4 C 3.103747 -3.011221 1.578506 0
M  V30 5 O 3.863512 -3.984326 1.789110 0
M  V30 6 C 2.433964 -2.795121 0.299331 0
M  V30 7 N 2.550742 -3.598531 -0.781512 0
M  V30 8 N 1.799503 -3.097518 -1.774243 0
M  V30 9 N 1.218129 -1.997597 -1.329523 0
M  V30 10 C 1.578167 -1.755534 -0.033123 0
M  V30 11 N 1.158391 -0.716681 0.707878 0
M  V30 12 C 0.306082 0.199915 0.178238 0
M  V30 13 S -0.145419 1.503696 1.291138 0
M  V30 14 C -1.533090 1.122061 2.357307 0
M  V30 15 C -2.780117 1.008573 1.591872 0
M  V30 16 C -3.678224 1.039026 0.419175 0
M  V30 17 O -3.553985 0.686576 2.510367 0
M  V30 18 C -0.075739 -0.011640 -1.126087 0
M  V30 19 C -0.925626 0.948310 -1.628942 0
M  V30 20 C -1.354223 0.826911 -2.932672 0
M  V30 21 C -0.912389 -0.247709 -3.672536 0
M  V30 22 C -0.049459 -1.216137 -3.157025 0
M  V30 23 C 0.376530 -1.089820 -1.852093 0
M  V30 24 H 3.478650 -0.046124 4.246755 0
M  V30 25 H 1.847151 -0.769680 4.236416 0
M  V30 26 H 2.958796 -1.004865 5.685951 0
M  V30 27 H 3.096113 -3.016137 4.470790 0
M  V30 28 H 4.547684 -2.174978 3.871368 0
M  V30 29 H -1.328793 0.224832 2.997472 0
M  V30 30 H -1.637745 1.998995 3.064282 0
M  V30 31 H -3.583403 0.124020 -0.211349 0
M  V30 32 H -3.388496 1.894616 -0.264145 0
M  V30 33 H -4.764868 1.204170 0.680247 0
M  V30 34 H -1.238172 1.786569 -1.031031 0
M  V30 35 H -2.022270 1.556980 -3.366161 0
M  V30 36 H -1.256444 -0.330578 -4.689624 0
M  V30 37 H 0.299346 -2.058974 -3.737070 0
M  V30 END ATOM
M  V30 BEGIN BOND
M  V30 1 1 1 2
M  V30 2 1 2 3
M  V30 3 1 3 4
M  V30 4 2 4 5
M  V30 5 1 4 6
M  V30 6 1 6 7
M  V30 7 2 7 8
M  V30 8 1 8 9
M  V30 9 1 9 10
M  V30 10 1 10 11
M  V30 11 2 11 12
M  V30 12 1 12 13
M  V30 13 1 13 14
M  V30 14 1 14 15
M  V30 15 1 15 16
M  V30 16 2 15 17
M  V30 17 1 12 18
M  V30 18 2 18 19
M  V30 19 1 19 20
M  V30 20 2 20 21
M  V30 21 1 21 22
M  V30 22 2 22 23
M  V30 23 2 10 6
M  V30 24 1 23 18
M  V30 25 1 23 9
M  V30 26 1 1 24
M  V30 27 1 1 25
M  V30 28 1 1 26
M  V30 29 1 2 27
M  V30 30 1 2 28
M  V30 31 1 14 29
M  V30 32 1 14 30
M  V30 33 1 16 31
M  V30 34 1 16 32
M  V30 35 1 16 33
M  V30 36 1 19 34
M  V30 37 1 20 35
M  V30 38 1 21 36
M  V30 39 1 22 37
M  V30 END BOND
M  V30 END CTAB
M  END
>  <Dataset>  (803) 
ChEMBL_Kinases

>  <Ligand_Instance>  (803) 
nan

>  <PDB_ID>  (803) 
nan

>  <Standardized_SMILES>  (803) 
CCOC(=O)c1nnn2c1nc(SCC(C)=O)c1ccccc12

>  <Name>  (803) 
nan

>  <Pocket>  (803) 
nan

>  <ATP_Site>  (803) 
nan

>  <Peripheral>  (803) 
nan

>  <Num_H_Atoms_ProtBoundConf>  (803) 
nan

>  <Num_Resolved_Atoms>  (803) 
nan

>  <Num_Not_Resolved_Atoms>  (803) 
nan

$$$$
CHEMBL1500536
     RDKit          3D

  0  0  0  0  0  0  0  0  0  0999 V3000
M  V30 BEGIN CTAB
M  V30 COUNTS 50 52 0 0 0
M  V30 BEGIN ATOM
M  V30 1 C -0.637090 -4.624840 2.272368 0
M  V30 2 C -0.114235 -4.150212 0.964880 0
M  V30 3 O 0.355476 -5.013075 0.167635 0
M  V30 4 C -0.186155 -2.705498 0.702873 0
M  V30 5 C 0.840142 -1.884637 1.053923 0
M  V30 6 C 2.137958 -2.200726 1.713661 0
M  V30 7 N 0.438612 -0.636738 0.667020 0
M  V30 8 C 1.242171 0.521836 0.860364 0
M  V30 9 C 1.357886 0.867935 2.211474 0
M  V30 10 C 2.097584 1.960660 2.613669 0
M  V30 11 C 2.719910 2.697302 1.606442 0
M  V30 12 N 3.481964 3.816717 2.000107 0
M  V30 13 C 3.584041 4.147941 3.404007 0
M  V30 14 C 4.174078 4.649590 1.014834 0
M  V30 15 C 2.629669 2.386301 0.249204 0
M  V30 16 C 1.875448 1.281295 -0.091831 0
M  V30 17 C -0.787079 -0.689804 0.100113 0
M  V30 18 C -1.630738 0.251896 -0.445196 0
M  V30 19 C -2.860507 -0.151543 -0.957477 0
M  V30 20 C -3.300085 -1.458439 -0.955622 0
M  V30 21 O -4.542426 -1.754724 -1.490360 0
M  V30 22 C -5.050399 -3.089588 -1.515507 0
M  V30 23 C -4.181541 -4.011951 -2.287712 0
M  V30 24 N -3.063998 -4.395211 -3.077048 0
M  V30 25 O -4.704858 -5.172860 -2.258409 0
M  V30 26 C -2.446600 -2.392157 -0.407134 0
M  V30 27 C -1.222131 -2.019452 0.107486 0
M  V30 28 H 0.176579 -4.953966 2.965855 0
M  V30 29 H -1.268813 -3.857100 2.763607 0
M  V30 30 H -1.322581 -5.503414 2.128676 0
M  V30 31 H 2.318702 -1.562879 2.626000 0
M  V30 32 H 2.122272 -3.255097 2.054674 0
M  V30 33 H 2.993120 -2.067223 1.043671 0
M  V30 34 H 0.883612 0.315889 3.033262 0
M  V30 35 H 2.194178 2.237158 3.649720 0
M  V30 36 H 2.523405 4.248852 3.775262 0
M  V30 37 H 4.189126 5.025131 3.626520 0
M  V30 38 H 3.978276 3.240387 3.945550 0
M  V30 39 H 4.866020 5.342309 1.504527 0
M  V30 40 H 3.414248 5.189971 0.408752 0
M  V30 41 H 4.773980 3.973124 0.373632 0
M  V30 42 H 3.116394 2.967747 -0.505031 0
M  V30 43 H 1.733830 0.945240 -1.102156 0
M  V30 44 H -1.313686 1.286248 -0.460947 0
M  V30 45 H -3.478135 0.650528 -1.374363 0
M  V30 46 H -6.058936 -3.119208 -1.968535 0
M  V30 47 H -5.094264 -3.485262 -0.465057 0
M  V30 48 H -2.187270 -4.730375 -2.579993 0
M  V30 49 H -3.126016 -4.340363 -4.117410 0
M  V30 50 H -2.739619 -3.419150 -0.380715 0
M  V30 END ATOM
M  V30 BEGIN BOND
M  V30 1 1 1 2
M  V30 2 2 2 3
M  V30 3 1 2 4
M  V30 4 2 4 5
M  V30 5 1 5 6
M  V30 6 1 5 7
M  V30 7 1 7 8
M  V30 8 2 8 9
M  V30 9 1 9 10
M  V30 10 2 10 11
M  V30 11 1 11 12
M  V30 12 1 12 13
M  V30 13 1 12 14
M  V30 14 1 11 15
M  V30 15 2 15 16
M  V30 16 1 7 17
M  V30 17 2 17 18
M  V30 18 1 18 19
M  V30 19 2 19 20
M  V30 20 1 20 21
M  V30 21 1 21 22
M  V30 22 1 22 23
M  V30 23 1 23 24
M  V30 24 2 23 25
M  V30 25 1 20 26
M  V30 26 2 26 27
M  V30 27 1 27 4
M  V30 28 1 16 8
M  V30 29 1 27 17
M  V30 30 1 1 28
M  V30 31 1 1 29
M  V30 32 1 1 30
M  V30 33 1 6 31
M  V30 34 1 6 32
M  V30 35 1 6 33
M  V30 36 1 9 34
M  V30 37 1 10 35
M  V30 38 1 13 36
M  V30 39 1 13 37
M  V30 40 1 13 38
M  V30 41 1 14 39
M  V30 42 1 14 40
M  V30 43 1 14 41
M  V30 44 1 15 42
M  V30 45 1 16 43
M  V30 46 1 18 44
M  V30 47 1 19 45
M  V30 48 1 22 46
M  V30 49 1 22 47
M  V30 50 1 24 48
M  V30 51 1 24 49
M  V30 52 1 26 50
M  V30 END BOND
M  V30 END CTAB
M  END
>  <Dataset>  (804) 
ChEMBL_Kinases

>  <Ligand_Instance>  (804) 
nan

>  <PDB_ID>  (804) 
nan

>  <Standardized_SMILES>  (804) 
CC(=O)c1c(C)n(-c2ccc(N(C)C)cc2)c2ccc(OCC(N)=O)cc12

>  <Name>  (804) 
nan

>  <Pocket>  (804) 
nan

>  <ATP_Site>  (804) 
nan

>  <Peripheral>  (804) 
nan

>  <Num_H_Atoms_ProtBoundConf>  (804) 
nan

>  <Num_Resolved_Atoms>  (804) 
nan

>  <Num_Not_Resolved_Atoms>  (804) 
nan

$$$$
CHEMBL1500529
     RDKit          3D

  0  0  0  0  0  0  0  0  0  0999 V3000
M  V30 BEGIN CTAB
M  V30 COUNTS 40 41 0 0 0
M  V30 BEGIN ATOM
M  V30 1 C 1.494122 2.458270 -6.058814 0
M  V30 2 C 0.672272 1.595102 -5.171768 0
M  V30 3 C 1.209762 0.462339 -4.597699 0
M  V30 4 C 0.376424 -0.293559 -3.779361 0
M  V30 5 C -0.948043 0.059729 -3.535985 0
M  V30 6 S -1.914721 -0.954225 -2.493419 0
M  V30 7 O -3.332892 -0.992478 -2.972713 0
M  V30 8 O -1.374946 -2.353847 -2.583130 0
M  V30 9 N -1.802329 -0.460132 -0.848065 0
M  V30 10 C -2.272873 0.866073 -0.599963 0
M  V30 11 C -2.127162 1.179870 0.845996 0
M  V30 12 O -2.467410 2.284722 1.332206 0
M  V30 13 N -1.585473 0.215141 1.741411 0
M  V30 14 C -1.374831 0.354225 3.170468 0
M  V30 15 C -2.074746 -0.818210 3.835541 0
M  V30 16 C -1.045861 -1.891955 4.021794 0
M  V30 17 C 0.225044 -1.397562 3.366471 0
M  V30 18 C 0.106084 0.102228 3.400313 0
M  V30 19 C -1.463152 1.191511 -4.117558 0
M  V30 20 C -0.642558 1.936026 -4.923504 0
M  V30 21 H 1.684303 3.432668 -5.580407 0
M  V30 22 H 0.988573 2.656171 -7.008444 0
M  V30 23 H 2.485104 1.958448 -6.222579 0
M  V30 24 H 2.234877 0.154495 -4.762687 0
M  V30 25 H 0.825086 -1.190650 -3.333110 0
M  V30 26 H -2.363788 -1.113042 -0.261836 0
M  V30 27 H -3.343960 1.002123 -0.850658 0
M  V30 28 H -1.705419 1.649718 -1.137774 0
M  V30 29 H -1.275112 -0.731351 1.426834 0
M  V30 30 H -1.673700 1.318329 3.584871 0
M  V30 31 H -2.903174 -1.232690 3.231193 0
M  V30 32 H -2.508166 -0.548831 4.817516 0
M  V30 33 H -1.379203 -2.859379 3.597644 0
M  V30 34 H -0.822469 -2.082572 5.094507 0
M  V30 35 H 1.126429 -1.758107 3.905147 0
M  V30 36 H 0.233986 -1.778578 2.313723 0
M  V30 37 H 0.428795 0.483161 4.383240 0
M  V30 38 H 0.683532 0.560576 2.562039 0
M  V30 39 H -2.495102 1.405644 -3.886374 0
M  V30 40 H -1.103554 2.822520 -5.358016 0
M  V30 END ATOM
M  V30 BEGIN BOND
M  V30 1 1 1 2
M  V30 2 2 2 3
M  V30 3 1 3 4
M  V30 4 2 4 5
M  V30 5 1 5 6
M  V30 6 2 6 7
M  V30 7 2 6 8
M  V30 8 1 6 9
M  V30 9 1 9 10
M  V30 10 1 10 11
M  V30 11 2 11 12
M  V30 12 1 11 13
M  V30 13 1 13 14
M  V30 14 1 14 15
M  V30 15 1 15 16
M  V30 16 1 16 17
M  V30 17 1 17 18
M  V30 18 1 5 19
M  V30 19 2 19 20
M  V30 20 1 20 2
M  V30 21 1 18 14
M  V30 22 1 1 21
M  V30 23 1 1 22
M  V30 24 1 1 23
M  V30 25 1 3 24
M  V30 26 1 4 25
M  V30 27 1 9 26
M  V30 28 1 10 27
M  V30 29 1 10 28
M  V30 30 1 13 29
M  V30 31 1 14 30
M  V30 32 1 15 31
M  V30 33 1 15 32
M  V30 34 1 16 33
M  V30 35 1 16 34
M  V30 36 1 17 35
M  V30 37 1 17 36
M  V30 38 1 18 37
M  V30 39 1 18 38
M  V30 40 1 19 39
M  V30 41 1 20 40
M  V30 END BOND
M  V30 END CTAB
M  END
>  <Dataset>  (805) 
ChEMBL_Kinases

>  <Ligand_Instance>  (805) 
nan

>  <PDB_ID>  (805) 
nan

>  <Standardized_SMILES>  (805) 
Cc1ccc(S(=O)(=O)NCC(=O)NC2CCCC2)cc1

>  <Name>  (805) 
nan

>  <Pocket>  (805) 
nan

>  <ATP_Site>  (805) 
nan

>  <Peripheral>  (805) 
nan

>  <Num_H_Atoms_ProtBoundConf>  (805) 
nan

>  <Num_Resolved_Atoms>  (805) 
nan

>  <Num_Not_Resolved_Atoms>  (805) 
nan

$$$$
CHEMBL1500384
     RDKit          3D

  0  0  0  0  0  0  0  0  0  0999 V3000
M  V30 BEGIN CTAB
M  V30 COUNTS 37 39 0 0 0
M  V30 BEGIN ATOM
M  V30 1 C -2.120660 -1.589419 1.404199 0
M  V30 2 C -0.811775 -1.105144 0.849602 0
M  V30 3 C 0.230650 -2.060707 1.361461 0
M  V30 4 C 0.461286 -3.319477 0.833665 0
M  V30 5 C 1.437445 -4.139883 1.358906 0
M  V30 6 C 2.216320 -3.748023 2.418582 0
M  V30 7 C 2.017267 -2.510827 2.966426 0
M  V30 8 C 1.038969 -1.698551 2.433942 0
M  V30 9 N -0.722941 -1.092181 -0.564389 0
M  V30 10 C -1.691396 -0.280329 -1.242285 0
M  V30 11 C -1.363955 1.187791 -1.263874 0
M  V30 12 C -0.098877 1.469433 -0.544279 0
M  V30 13 N -0.018704 2.744424 -0.062197 0
M  V30 14 C 1.111462 3.093256 0.614350 0
M  V30 15 S 1.255803 4.751951 1.261285 0
M  V30 16 N 2.119940 2.222653 0.807683 0
M  V30 17 C 2.067353 0.951109 0.340347 0
M  V30 18 O 3.011817 -0.029928 0.463856 0
M  V30 19 C 0.935038 0.578056 -0.345639 0
M  V30 20 C 0.615624 -0.743252 -0.961548 0
M  V30 21 H -1.966679 -1.641639 2.513922 0
M  V30 22 H -2.956696 -0.875102 1.272319 0
M  V30 23 H -2.353091 -2.626572 1.091426 0
M  V30 24 H -0.591333 -0.122605 1.267995 0
M  V30 25 H -0.184389 -3.574184 -0.001859 0
M  V30 26 H 1.509056 -5.079596 0.859032 0
M  V30 27 H 2.948605 -4.496573 2.731106 0
M  V30 28 H 2.641484 -2.231717 3.794320 0
M  V30 29 H 0.883203 -0.719284 2.869430 0
M  V30 30 H -1.679867 -0.628523 -2.312581 0
M  V30 31 H -2.708728 -0.467697 -0.894889 0
M  V30 32 H -2.220779 1.735026 -0.797344 0
M  V30 33 H -1.213519 1.578574 -2.302334 0
M  V30 34 H 0.186791 4.992374 2.119650 0
M  V30 35 H 3.712355 -0.296673 -0.203224 0
M  V30 36 H 0.602890 -0.657971 -2.070538 0
M  V30 37 H 1.297676 -1.525214 -0.623554 0
M  V30 END ATOM
M  V30 BEGIN BOND
M  V30 1 1 1 2
M  V30 2 1 2 3
M  V30 3 2 3 4
M  V30 4 1 4 5
M  V30 5 2 5 6
M  V30 6 1 6 7
M  V30 7 2 7 8
M  V30 8 1 2 9
M  V30 9 1 9 10
M  V30 10 1 10 11
M  V30 11 1 11 12
M  V30 12 2 12 13
M  V30 13 1 13 14
M  V30 14 1 14 15
M  V30 15 2 14 16
M  V30 16 1 16 17
M  V30 17 1 17 18
M  V30 18 2 17 19
M  V30 19 1 19 20
M  V30 20 1 8 3
M  V30 21 1 20 9
M  V30 22 1 19 12
M  V30 23 1 1 21
M  V30 24 1 1 22
M  V30 25 1 1 23
M  V30 26 1 2 24
M  V30 27 1 4 25
M  V30 28 1 5 26
M  V30 29 1 6 27
M  V30 30 1 7 28
M  V30 31 1 8 29
M  V30 32 1 10 30
M  V30 33 1 10 31
M  V30 34 1 11 32
M  V30 35 1 11 33
M  V30 36 1 15 34
M  V30 37 1 18 35
M  V30 38 1 20 36
M  V30 39 1 20 37
M  V30 END BOND
M  V30 END CTAB
M  END
>  <Dataset>  (806) 
ChEMBL_Kinases

>  <Ligand_Instance>  (806) 
nan

>  <PDB_ID>  (806) 
nan

>  <Standardized_SMILES>  (806) 
CC(c1ccccc1)N1CCc2nc(S)nc(O)c2C1

>  <Name>  (806) 
nan

>  <Pocket>  (806) 
nan

>  <ATP_Site>  (806) 
nan

>  <Peripheral>  (806) 
nan

>  <Num_H_Atoms_ProtBoundConf>  (806) 
nan

>  <Num_Resolved_Atoms>  (806) 
nan

>  <Num_Not_Resolved_Atoms>  (806) 
nan

$$$$
CHEMBL1500317
     RDKit          3D

  0  0  0  0  0  0  0  0  0  0999 V3000
M  V30 BEGIN CTAB
M  V30 COUNTS 38 41 0 0 0
M  V30 BEGIN ATOM
M  V30 1 O -0.460574 -4.343622 2.038044 0
M  V30 2 C 0.026362 -3.292951 1.574134 0
M  V30 3 C 1.184396 -2.692281 2.310456 0
M  V30 4 N 1.604962 -1.474488 1.608949 0
M  V30 5 N 2.520579 -1.470302 0.639537 0
M  V30 6 C 2.848546 -0.294721 0.044837 0
M  V30 7 N 2.304036 0.893582 0.370354 0
M  V30 8 C 1.364503 0.909395 1.360847 0
M  V30 9 C 0.946932 2.218158 1.526697 0
M  V30 10 C 1.657244 2.979819 0.614798 0
M  V30 11 C 1.596113 4.355687 0.389468 0
M  V30 12 C 2.418167 4.889611 -0.592625 0
M  V30 13 C 3.254917 4.046431 -1.300010 0
M  V30 14 C 3.319721 2.682480 -1.081076 0
M  V30 15 C 2.508161 2.135055 -0.107236 0
M  V30 16 C 1.051399 -0.296194 1.946151 0
M  V30 17 O 0.188638 -0.265754 2.852360 0
M  V30 18 N -0.504737 -2.701529 0.396225 0
M  V30 19 C -1.611799 -3.213729 -0.367656 0
M  V30 20 C -2.875761 -3.308138 0.408899 0
M  V30 21 C -3.431359 -4.312233 1.175104 0
M  V30 22 C -4.637728 -3.908940 1.698649 0
M  V30 23 C -4.776912 -2.626641 1.213670 0
M  V30 24 O -3.758055 -2.314483 0.483426 0
M  V30 25 H 0.798370 -2.400894 3.309218 0
M  V30 26 H 2.030541 -3.381146 2.399637 0
M  V30 27 H 3.596455 -0.333921 -0.738025 0
M  V30 28 H 0.197821 2.563777 2.246258 0
M  V30 29 H 0.909368 4.957029 0.989154 0
M  V30 30 H 2.380050 5.953848 -0.776618 0
M  V30 31 H 3.880269 4.495682 -2.056189 0
M  V30 32 H 3.984263 2.041143 -1.648838 0
M  V30 33 H -0.004284 -1.814151 0.105839 0
M  V30 34 H -1.783734 -2.561627 -1.229610 0
M  V30 35 H -1.400384 -4.241745 -0.767621 0
M  V30 36 H -2.943848 -5.267105 1.312539 0
M  V30 37 H -5.302829 -4.475394 2.335419 0
M  V30 38 H -5.605088 -1.950843 1.397014 0
M  V30 END ATOM
M  V30 BEGIN BOND
M  V30 1 2 1 2
M  V30 2 1 2 3
M  V30 3 1 3 4
M  V30 4 1 4 5
M  V30 5 2 5 6
M  V30 6 1 6 7
M  V30 7 1 7 8
M  V30 8 2 8 9
M  V30 9 1 9 10
M  V30 10 2 10 11
M  V30 11 1 11 12
M  V30 12 2 12 13
M  V30 13 1 13 14
M  V30 14 2 14 15
M  V30 15 1 8 16
M  V30 16 2 16 17
M  V30 17 1 2 18
M  V30 18 1 18 19
M  V30 19 1 19 20
M  V30 20 2 20 21
M  V30 21 1 21 22
M  V30 22 2 22 23
M  V30 23 1 23 24
M  V30 24 1 16 4
M  V30 25 1 24 20
M  V30 26 1 15 7
M  V30 27 1 15 10
M  V30 28 1 3 25
M  V30 29 1 3 26
M  V30 30 1 6 27
M  V30 31 1 9 28
M  V30 32 1 11 29
M  V30 33 1 12 30
M  V30 34 1 13 31
M  V30 35 1 14 32
M  V30 36 1 18 33
M  V30 37 1 19 34
M  V30 38 1 19 35
M  V30 39 1 21 36
M  V30 40 1 22 37
M  V30 41 1 23 38
M  V30 END BOND
M  V30 END CTAB
M  END
>  <Dataset>  (807) 
ChEMBL_Kinases

>  <Ligand_Instance>  (807) 
nan

>  <PDB_ID>  (807) 
nan

>  <Standardized_SMILES>  (807) 
O=C(Cn1ncn2c(cc3ccccc32)c1=O)NCc1ccco1

>  <Name>  (807) 
nan

>  <Pocket>  (807) 
nan

>  <ATP_Site>  (807) 
nan

>  <Peripheral>  (807) 
nan

>  <Num_H_Atoms_ProtBoundConf>  (807) 
nan

>  <Num_Resolved_Atoms>  (807) 
nan

>  <Num_Not_Resolved_Atoms>  (807) 
nan

$$$$
CHEMBL1500250
     RDKit          3D

  0  0  0  0  0  0  0  0  0  0999 V3000
M  V30 BEGIN CTAB
M  V30 COUNTS 53 55 0 0 0
M  V30 BEGIN ATOM
M  V30 1 C -0.274858 -2.675238 4.623400 0
M  V30 2 C 0.793818 -3.722688 4.289892 0
M  V30 3 O 1.944649 -3.104908 3.855376 0
M  V30 4 C 1.758263 -2.325204 2.702730 0
M  V30 5 C 3.046244 -1.665748 2.278892 0
M  V30 6 C 2.875470 -0.812414 1.046085 0
M  V30 7 N 2.447455 -1.643066 -0.038304 0
M  V30 8 C 2.250094 -0.877477 -1.270126 0
M  V30 9 C 1.101356 0.024418 -1.038736 0
M  V30 10 C 0.898597 1.355163 -0.755184 0
M  V30 11 N -0.415033 1.610181 -0.637006 0
M  V30 12 C -1.053754 2.852171 -0.358505 0
M  V30 13 C -0.828135 4.079674 -0.946983 0
M  V30 14 C -1.558458 5.183265 -0.556017 0
M  V30 15 C -2.539142 5.114538 0.431477 0
M  V30 16 F -3.241519 6.224287 0.791133 0
M  V30 17 C -2.774270 3.875071 1.033832 0
M  V30 18 C -2.035049 2.783850 0.629934 0
M  V30 19 F -2.338416 1.622241 1.273599 0
M  V30 20 N -1.042556 0.462373 -0.840752 0
M  V30 21 C -0.181011 -0.524316 -1.087523 0
M  V30 22 C -0.811884 -1.826797 -1.326455 0
M  V30 23 C -0.540085 -2.413830 -2.551767 0
M  V30 24 C -1.062074 -3.632770 -2.967136 0
M  V30 25 C -1.913560 -4.275195 -2.057724 0
M  V30 26 C -2.157305 -3.665624 -0.860661 0
M  V30 27 C -1.643889 -2.471667 -0.456760 0
M  V30 28 C -1.907252 -1.815209 0.845415 0
M  V30 29 H -1.003888 -3.053687 5.370251 0
M  V30 30 H -0.837047 -2.351545 3.738354 0
M  V30 31 H 0.249205 -1.810499 5.123339 0
M  V30 32 H 0.357569 -4.420881 3.566646 0
M  V30 33 H 1.040370 -4.206706 5.259267 0
M  V30 34 H 0.941821 -1.576198 2.907039 0
M  V30 35 H 1.334403 -3.009432 1.947410 0
M  V30 36 H 3.732931 -2.501024 1.968764 0
M  V30 37 H 3.480773 -1.111935 3.124431 0
M  V30 38 H 2.078731 -0.049823 1.295805 0
M  V30 39 H 3.784592 -0.232564 0.811962 0
M  V30 40 H 1.474747 -1.982342 0.236639 0
M  V30 41 H 3.175413 -0.303896 -1.514472 0
M  V30 42 H 2.039929 -1.577351 -2.068929 0
M  V30 43 H 1.735592 2.019332 -0.660839 0
M  V30 44 H -0.057809 4.069958 -1.704228 0
M  V30 45 H -1.337279 6.136854 -1.057914 0
M  V30 46 H -3.539897 3.807285 1.806745 0
M  V30 47 H 0.098910 -2.010965 -3.345451 0
M  V30 48 H -0.879467 -4.122930 -3.904918 0
M  V30 49 H -2.381862 -5.246000 -2.285316 0
M  V30 50 H -2.831071 -4.197619 -0.174562 0
M  V30 51 H -2.013691 -2.636376 1.601510 0
M  V30 52 H -2.810887 -1.205282 0.817748 0
M  V30 53 H -1.043721 -1.175439 1.156195 0
M  V30 END ATOM
M  V30 BEGIN BOND
M  V30 1 1 1 2
M  V30 2 1 2 3
M  V30 3 1 3 4
M  V30 4 1 4 5
M  V30 5 1 5 6
M  V30 6 1 6 7
M  V30 7 1 7 8
M  V30 8 1 8 9
M  V30 9 2 9 10
M  V30 10 1 10 11
M  V30 11 1 11 12
M  V30 12 2 12 13
M  V30 13 1 13 14
M  V30 14 2 14 15
M  V30 15 1 15 16
M  V30 16 1 15 17
M  V30 17 2 17 18
M  V30 18 1 18 19
M  V30 19 1 11 20
M  V30 20 2 20 21
M  V30 21 1 21 22
M  V30 22 2 22 23
M  V30 23 1 23 24
M  V30 24 2 24 25
M  V30 25 1 25 26
M  V30 26 2 26 27
M  V30 27 1 27 28
M  V30 28 1 21 9
M  V30 29 1 27 22
M  V30 30 1 18 12
M  V30 31 1 1 29
M  V30 32 1 1 30
M  V30 33 1 1 31
M  V30 34 1 2 32
M  V30 35 1 2 33
M  V30 36 1 4 34
M  V30 37 1 4 35
M  V30 38 1 5 36
M  V30 39 1 5 37
M  V30 40 1 6 38
M  V30 41 1 6 39
M  V30 42 1 7 40
M  V30 43 1 8 41
M  V30 44 1 8 42
M  V30 45 1 10 43
M  V30 46 1 13 44
M  V30 47 1 14 45
M  V30 48 1 17 46
M  V30 49 1 23 47
M  V30 50 1 24 48
M  V30 51 1 25 49
M  V30 52 1 26 50
M  V30 53 1 28 51
M  V30 54 1 28 52
M  V30 55 1 28 53
M  V30 END BOND
M  V30 END CTAB
M  END
>  <Dataset>  (808) 
ChEMBL_Kinases

>  <Ligand_Instance>  (808) 
nan

>  <PDB_ID>  (808) 
nan

>  <Standardized_SMILES>  (808) 
CCOCCCNCc1cn(-c2ccc(F)cc2F)nc1-c1ccccc1C

>  <Name>  (808) 
nan

>  <Pocket>  (808) 
nan

>  <ATP_Site>  (808) 
nan

>  <Peripheral>  (808) 
nan

>  <Num_H_Atoms_ProtBoundConf>  (808) 
nan

>  <Num_Resolved_Atoms>  (808) 
nan

>  <Num_Not_Resolved_Atoms>  (808) 
nan

$$$$
CHEMBL1500158
     RDKit          3D

  0  0  0  0  0  0  0  0  0  0999 V3000
M  V30 BEGIN CTAB
M  V30 COUNTS 49 52 0 0 0
M  V30 BEGIN ATOM
M  V30 1 C -4.179135 -1.402025 -2.228244 0
M  V30 2 O -3.775232 -2.733815 -2.034183 0
M  V30 3 C -2.481056 -3.076447 -1.670734 0
M  V30 4 C -1.505010 -2.143794 -1.475025 0
M  V30 5 C -0.220783 -2.497441 -1.113473 0
M  V30 6 C 0.758114 -1.424993 -0.926091 0
M  V30 7 N 2.054644 -1.537576 -0.577143 0
M  V30 8 N 2.548261 -0.306918 -0.527987 0
M  V30 9 C 1.606671 0.577896 -0.834184 0
M  V30 10 C 1.459323 2.050993 -0.969410 0
M  V30 11 O 1.036442 2.679265 0.199051 0
M  V30 12 C 1.663313 2.717863 1.412426 0
M  V30 13 C 2.828873 2.220692 1.915230 0
M  V30 14 C 3.221127 2.418940 3.216756 0
M  V30 15 C 2.448176 3.140116 4.094827 0
M  V30 16 C 2.934274 3.279084 5.377141 0
M  V30 17 C 2.169160 3.999293 6.265735 0
M  V30 18 C 0.964535 4.546108 5.847093 0
M  V30 19 C 0.532935 4.373965 4.557611 0
M  V30 20 C 1.251829 3.665239 3.623552 0
M  V30 21 C 0.868579 3.455103 2.301496 0
M  V30 22 O 0.515709 -0.148669 -1.073836 0
M  V30 23 C 0.146038 -3.812642 -0.930292 0
M  V30 24 C -0.872934 -4.734586 -1.138013 0
M  V30 25 O -0.625820 -6.091212 -0.983632 0
M  V30 26 C 0.646487 -6.540473 -0.618911 0
M  V30 27 C -2.164686 -4.406330 -1.499870 0
M  V30 28 O -3.139664 -5.371345 -1.693162 0
M  V30 29 C -3.986271 -5.844465 -0.685333 0
M  V30 30 H -4.040292 -0.800389 -1.297607 0
M  V30 31 H -3.539766 -0.953265 -3.009302 0
M  V30 32 H -5.245764 -1.376477 -2.478112 0
M  V30 33 H -1.771998 -1.090079 -1.614694 0
M  V30 34 H 2.441547 2.449405 -1.336791 0
M  V30 35 H 0.719895 2.334887 -1.769680 0
M  V30 36 H 3.379829 1.679209 1.182415 0
M  V30 37 H 4.156280 1.973451 3.476717 0
M  V30 38 H 3.869405 2.843008 5.666219 0
M  V30 39 H 2.536468 4.114162 7.265202 0
M  V30 40 H 0.366409 5.109341 6.542422 0
M  V30 41 H -0.408471 4.802385 4.233812 0
M  V30 42 H -0.085704 3.936692 2.119683 0
M  V30 43 H 1.140178 -4.103862 -0.649268 0
M  V30 44 H 0.880478 -6.374393 0.463178 0
M  V30 45 H 1.420370 -6.065527 -1.268776 0
M  V30 46 H 0.740680 -7.647495 -0.799513 0
M  V30 47 H -3.606625 -5.534158 0.311197 0
M  V30 48 H -4.018593 -6.962590 -0.790114 0
M  V30 49 H -5.045323 -5.493580 -0.832785 0
M  V30 END ATOM
M  V30 BEGIN BOND
M  V30 1 1 1 2
M  V30 2 1 2 3
M  V30 3 2 3 4
M  V30 4 1 4 5
M  V30 5 1 5 6
M  V30 6 2 6 7
M  V30 7 1 7 8
M  V30 8 2 8 9
M  V30 9 1 9 10
M  V30 10 1 10 11
M  V30 11 1 11 12
M  V30 12 2 12 13
M  V30 13 1 13 14
M  V30 14 2 14 15
M  V30 15 1 15 16
M  V30 16 2 16 17
M  V30 17 1 17 18
M  V30 18 2 18 19
M  V30 19 1 19 20
M  V30 20 2 20 21
M  V30 21 1 9 22
M  V30 22 2 5 23
M  V30 23 1 23 24
M  V30 24 1 24 25
M  V30 25 1 25 26
M  V30 26 2 24 27
M  V30 27 1 27 28
M  V30 28 1 28 29
M  V30 29 1 27 3
M  V30 30 1 22 6
M  V30 31 1 21 12
M  V30 32 1 20 15
M  V30 33 1 1 30
M  V30 34 1 1 31
M  V30 35 1 1 32
M  V30 36 1 4 33
M  V30 37 1 10 34
M  V30 38 1 10 35
M  V30 39 1 13 36
M  V30 40 1 14 37
M  V30 41 1 16 38
M  V30 42 1 17 39
M  V30 43 1 18 40
M  V30 44 1 19 41
M  V30 45 1 21 42
M  V30 46 1 23 43
M  V30 47 1 26 44
M  V30 48 1 26 45
M  V30 49 1 26 46
M  V30 50 1 29 47
M  V30 51 1 29 48
M  V30 52 1 29 49
M  V30 END BOND
M  V30 END CTAB
M  END
>  <Dataset>  (809) 
ChEMBL_Kinases

>  <Ligand_Instance>  (809) 
nan

>  <PDB_ID>  (809) 
nan

>  <Standardized_SMILES>  (809) 
COc1cc(-c2nnc(COc3ccc4ccccc4c3)o2)cc(OC)c1OC

>  <Name>  (809) 
nan

>  <Pocket>  (809) 
nan

>  <ATP_Site>  (809) 
nan

>  <Peripheral>  (809) 
nan

>  <Num_H_Atoms_ProtBoundConf>  (809) 
nan

>  <Num_Resolved_Atoms>  (809) 
nan

>  <Num_Not_Resolved_Atoms>  (809) 
nan

$$$$
CHEMBL1500109
     RDKit          3D

  0  0  0  0  0  0  0  0  0  0999 V3000
M  V30 BEGIN CTAB
M  V30 COUNTS 34 37 0 0 0
M  V30 BEGIN ATOM
M  V30 1 O -3.012117 -2.613760 3.319248 0
M  V30 2 C -2.021622 -1.787202 2.802319 0
M  V30 3 N -0.728195 -1.962567 3.011241 0
M  V30 4 C 0.275124 -1.201754 2.541581 0
M  V30 5 C 1.614007 -1.679494 2.971945 0
M  V30 6 S 2.360248 -2.874203 1.874710 0
M  V30 7 C 2.820509 -2.244437 0.300294 0
M  V30 8 C 3.355175 -3.250084 -0.512749 0
M  V30 9 C 3.793863 -2.968362 -1.812529 0
M  V30 10 C 3.708841 -1.687785 -2.323897 0
M  V30 11 C 3.184101 -0.706802 -1.522021 0
M  V30 12 C 2.752930 -0.984223 -0.243676 0
M  V30 13 N -0.079725 -0.156005 1.781469 0
M  V30 14 C -1.369429 0.100013 1.515964 0
M  V30 15 C -2.366103 -0.708192 2.019368 0
M  V30 16 O -3.523365 -0.216731 1.596544 0
M  V30 17 C -3.296827 0.857942 0.854426 0
M  V30 18 C -4.147343 1.732116 0.181973 0
M  V30 19 C -3.591290 2.795552 -0.530833 0
M  V30 20 C -2.230070 3.004544 -0.588103 0
M  V30 21 C -1.370082 2.144292 0.075242 0
M  V30 22 C -1.943380 1.102824 0.771466 0
M  V30 23 H -3.640434 -3.153530 2.750334 0
M  V30 24 H 1.583603 -2.114589 3.995486 0
M  V30 25 H 2.280326 -0.786143 2.992485 0
M  V30 26 H 3.494079 -4.298521 -0.273682 0
M  V30 27 H 4.212137 -3.698125 -2.481347 0
M  V30 28 H 4.024287 -1.386751 -3.314029 0
M  V30 29 H 3.074964 0.334530 -1.833674 0
M  V30 30 H 2.336984 -0.277335 0.447267 0
M  V30 31 H -5.202746 1.560242 0.233455 0
M  V30 32 H -4.272506 3.471496 -1.052319 0
M  V30 33 H -1.794124 3.829703 -1.140969 0
M  V30 34 H -0.283427 2.279860 0.051253 0
M  V30 END ATOM
M  V30 BEGIN BOND
M  V30 1 1 1 2
M  V30 2 2 2 3
M  V30 3 1 3 4
M  V30 4 1 4 5
M  V30 5 1 5 6
M  V30 6 1 6 7
M  V30 7 2 7 8
M  V30 8 1 8 9
M  V30 9 2 9 10
M  V30 10 1 10 11
M  V30 11 2 11 12
M  V30 12 2 4 13
M  V30 13 1 13 14
M  V30 14 2 14 15
M  V30 15 1 15 16
M  V30 16 1 16 17
M  V30 17 2 17 18
M  V30 18 1 18 19
M  V30 19 2 19 20
M  V30 20 1 20 21
M  V30 21 2 21 22
M  V30 22 1 15 2
M  V30 23 1 22 17
M  V30 24 1 12 7
M  V30 25 1 22 14
M  V30 26 1 1 23
M  V30 27 1 5 24
M  V30 28 1 5 25
M  V30 29 1 8 26
M  V30 30 1 9 27
M  V30 31 1 10 28
M  V30 32 1 11 29
M  V30 33 1 12 30
M  V30 34 1 18 31
M  V30 35 1 19 32
M  V30 36 1 20 33
M  V30 37 1 21 34
M  V30 END BOND
M  V30 END CTAB
M  END
>  <Dataset>  (810) 
ChEMBL_Kinases

>  <Ligand_Instance>  (810) 
nan

>  <PDB_ID>  (810) 
nan

>  <Standardized_SMILES>  (810) 
Oc1nc(CSc2ccccc2)nc2c1oc1ccccc12

>  <Name>  (810) 
nan

>  <Pocket>  (810) 
nan

>  <ATP_Site>  (810) 
nan

>  <Peripheral>  (810) 
nan

>  <Num_H_Atoms_ProtBoundConf>  (810) 
nan

>  <Num_Resolved_Atoms>  (810) 
nan

>  <Num_Not_Resolved_Atoms>  (810) 
nan

$$$$
CHEMBL1500059
     RDKit          3D

  0  0  0  0  0  0  0  0  0  0999 V3000
M  V30 BEGIN CTAB
M  V30 COUNTS 59 63 0 0 0
M  V30 BEGIN ATOM
M  V30 1 C -2.357908 -4.113748 5.026142 0
M  V30 2 O -1.836117 -3.867802 3.732792 0
M  V30 3 C -1.024884 -2.764854 3.502634 0
M  V30 4 C -0.715580 -1.894730 4.526059 0
M  V30 5 C 0.086136 -0.791081 4.332138 0
M  V30 6 C 0.622974 -0.497711 3.097661 0
M  V30 7 C 1.462483 0.615146 2.686861 0
M  V30 8 N 2.572175 0.228925 2.014455 0
M  V30 9 N 3.441083 1.093042 1.566816 0
M  V30 10 C 4.631101 0.669920 0.845503 0
M  V30 11 C 3.313227 2.422093 1.730897 0
M  V30 12 O 4.139008 3.284862 1.308981 0
M  V30 13 C 2.217965 2.882476 2.398868 0
M  V30 14 C 1.918761 4.199728 2.650772 0
M  V30 15 C 0.773809 4.593059 3.331837 0
M  V30 16 C -0.122205 3.637212 3.787604 0
M  V30 17 C 0.154797 2.315856 3.548562 0
M  V30 18 C 1.301648 1.970579 2.870558 0
M  V30 19 C 0.285271 -1.405667 2.085879 0
M  V30 20 C -0.513043 -2.518896 2.245298 0
M  V30 21 N -0.801309 -3.385177 1.155303 0
M  V30 22 C -1.992957 -2.934968 0.490600 0
M  V30 23 O -2.574354 -1.907610 0.936266 0
M  V30 24 C -2.588689 -3.621812 -0.711090 0
M  V30 25 N -1.935974 -2.958030 -1.850737 0
M  V30 26 N -0.789771 -3.482907 -2.302497 0
M  V30 27 C -0.126743 -2.938332 -3.340755 0
M  V30 28 C 1.161423 -3.529234 -3.847372 0
M  V30 29 C -0.588778 -1.814428 -3.994328 0
M  V30 30 C 0.014683 -1.190630 -5.056569 0
M  V30 31 C -0.512128 -0.067047 -5.657043 0
M  V30 32 C -1.709499 0.487400 -5.190776 0
M  V30 33 C -2.311701 -0.143950 -4.122632 0
M  V30 34 C -1.786580 -1.270159 -3.518354 0
M  V30 35 C -2.422066 -1.863245 -2.458065 0
M  V30 36 O -3.497090 -1.399201 -2.008482 0
M  V30 37 H -2.774043 -5.140752 5.076709 0
M  V30 38 H -3.094943 -3.350814 5.353574 0
M  V30 39 H -1.491123 -4.028854 5.744193 0
M  V30 40 H -1.087135 -2.036627 5.529311 0
M  V30 41 H 0.339422 -0.124376 5.125910 0
M  V30 42 H 4.398283 0.367061 -0.185513 0
M  V30 43 H 5.007033 -0.232295 1.367951 0
M  V30 44 H 5.426837 1.427384 0.846000 0
M  V30 45 H 2.617070 4.950703 2.295773 0
M  V30 46 H 0.633720 5.656492 3.477099 0
M  V30 47 H -0.974222 4.046634 4.300894 0
M  V30 48 H -0.559033 1.616138 3.901662 0
M  V30 49 H 0.662752 -1.260527 1.069356 0
M  V30 50 H -0.337821 -4.236989 0.769102 0
M  V30 51 H -2.310610 -4.678045 -0.679048 0
M  V30 52 H -3.681010 -3.427700 -0.691120 0
M  V30 53 H 2.003818 -2.807104 -3.763019 0
M  V30 54 H 1.105650 -3.811989 -4.914360 0
M  V30 55 H 1.440426 -4.398097 -3.205281 0
M  V30 56 H 0.931487 -1.626080 -5.403559 0
M  V30 57 H -0.032233 0.406755 -6.481355 0
M  V30 58 H -2.189747 1.365826 -5.604637 0
M  V30 59 H -3.254878 0.269239 -3.733880 0
M  V30 END ATOM
M  V30 BEGIN BOND
M  V30 1 1 1 2
M  V30 2 1 2 3
M  V30 3 2 3 4
M  V30 4 1 4 5
M  V30 5 2 5 6
M  V30 6 1 6 7
M  V30 7 2 7 8
M  V30 8 1 8 9
M  V30 9 1 9 10
M  V30 10 1 9 11
M  V30 11 2 11 12
M  V30 12 1 11 13
M  V30 13 2 13 14
M  V30 14 1 14 15
M  V30 15 2 15 16
M  V30 16 1 16 17
M  V30 17 2 17 18
M  V30 18 1 6 19
M  V30 19 2 19 20
M  V30 20 1 20 21
M  V30 21 1 21 22
M  V30 22 2 22 23
M  V30 23 1 22 24
M  V30 24 1 24 25
M  V30 25 1 25 26
M  V30 26 2 26 27
M  V30 27 1 27 28
M  V30 28 1 27 29
M  V30 29 2 29 30
M  V30 30 1 30 31
M  V30 31 2 31 32
M  V30 32 1 32 33
M  V30 33 2 33 34
M  V30 34 1 34 35
M  V30 35 2 35 36
M  V30 36 1 20 3
M  V30 37 1 35 25
M  V30 38 1 18 7
M  V30 39 1 34 29
M  V30 40 1 18 13
M  V30 41 1 1 37
M  V30 42 1 1 38
M  V30 43 1 1 39
M  V30 44 1 4 40
M  V30 45 1 5 41
M  V30 46 1 10 42
M  V30 47 1 10 43
M  V30 48 1 10 44
M  V30 49 1 14 45
M  V30 50 1 15 46
M  V30 51 1 16 47
M  V30 52 1 17 48
M  V30 53 1 19 49
M  V30 54 1 21 50
M  V30 55 1 24 51
M  V30 56 1 24 52
M  V30 57 1 28 53
M  V30 58 1 28 54
M  V30 59 1 28 55
M  V30 60 1 30 56
M  V30 61 1 31 57
M  V30 62 1 32 58
M  V30 63 1 33 59
M  V30 END BOND
M  V30 END CTAB
M  END
>  <Dataset>  (811) 
ChEMBL_Kinases

>  <Ligand_Instance>  (811) 
nan

>  <PDB_ID>  (811) 
nan

>  <Standardized_SMILES>  (811) 
COc1ccc(-c2nn(C)c(=O)c3ccccc23)cc1NC(=O)Cn1nc(C)c2ccccc2c1=O

>  <Name>  (811) 
nan

>  <Pocket>  (811) 
nan

>  <ATP_Site>  (811) 
nan

>  <Peripheral>  (811) 
nan

>  <Num_H_Atoms_ProtBoundConf>  (811) 
nan

>  <Num_Resolved_Atoms>  (811) 
nan

>  <Num_Not_Resolved_Atoms>  (811) 
nan

$$$$
CHEMBL1500025
     RDKit          3D

  0  0  0  0  0  0  0  0  0  0999 V3000
M  V30 BEGIN CTAB
M  V30 COUNTS 43 45 0 0 0
M  V30 BEGIN ATOM
M  V30 1 C 2.039860 -6.160308 1.108037 0
M  V30 2 O 2.952657 -5.445618 1.933481 0
M  V30 3 C 3.262247 -4.114535 1.672494 0
M  V30 4 C 4.169584 -3.600244 2.590454 0
M  V30 5 C 4.595029 -2.281338 2.485357 0
M  V30 6 C 4.085986 -1.525966 1.451653 0
M  V30 7 C 3.187056 -2.012490 0.530768 0
M  V30 8 C 2.642109 -1.209576 -0.572993 0
M  V30 9 N 1.802151 -1.562077 -1.484223 0
M  V30 10 O 1.562538 -0.481689 -2.330948 0
M  V30 11 C 1.848101 0.708694 -1.611072 0
M  V30 12 C 0.646016 0.997894 -0.804881 0
M  V30 13 O -0.030948 -0.009695 -1.198150 0
M  V30 14 N 0.429937 2.083158 0.088014 0
M  V30 15 C -0.896462 1.945465 0.646892 0
M  V30 16 C -1.013272 1.214877 1.816388 0
M  V30 17 C -2.282032 1.069418 2.372447 0
M  V30 18 C -3.340491 1.666016 1.716865 0
M  V30 19 C -4.657191 1.497606 2.321173 0
M  V30 20 C -5.891409 2.093736 1.711966 0
M  V30 21 O -4.777215 0.831338 3.391206 0
M  V30 22 C -3.223831 2.394569 0.550580 0
M  V30 23 C -1.954874 2.546028 -0.014886 0
M  V30 24 C 3.028064 0.223752 -0.785967 0
M  V30 25 C 2.773566 -3.327750 0.649516 0
M  V30 26 H 1.203245 -5.461350 0.815930 0
M  V30 27 H 2.547877 -6.487912 0.176092 0
M  V30 28 H 1.548971 -6.979282 1.645262 0
M  V30 29 H 4.598628 -4.141332 3.414217 0
M  V30 30 H 5.301470 -1.821475 3.170542 0
M  V30 31 H 4.416836 -0.496273 1.367918 0
M  V30 32 H 2.101220 1.485253 -2.338724 0
M  V30 33 H 1.281334 2.685540 0.101353 0
M  V30 34 H -0.157992 0.763286 2.298582 0
M  V30 35 H -2.378343 0.502002 3.282184 0
M  V30 36 H -6.215188 1.500385 0.814594 0
M  V30 37 H -6.689862 2.129666 2.477550 0
M  V30 38 H -5.654857 3.129982 1.440503 0
M  V30 39 H -4.101433 2.834953 0.091644 0
M  V30 40 H -1.816206 3.108336 -0.927655 0
M  V30 41 H 2.996261 0.782871 0.172472 0
M  V30 42 H 3.954800 0.351835 -1.339863 0
M  V30 43 H 2.081029 -3.807132 -0.007984 0
M  V30 END ATOM
M  V30 BEGIN BOND
M  V30 1 1 1 2
M  V30 2 1 2 3
M  V30 3 2 3 4
M  V30 4 1 4 5
M  V30 5 2 5 6
M  V30 6 1 6 7
M  V30 7 1 7 8
M  V30 8 2 8 9
M  V30 9 1 9 10
M  V30 10 1 10 11
M  V30 11 1 11 12
M  V30 12 2 12 13
M  V30 13 1 12 14
M  V30 14 1 14 15
M  V30 15 2 15 16
M  V30 16 1 16 17
M  V30 17 2 17 18
M  V30 18 1 18 19
M  V30 19 1 19 20
M  V30 20 2 19 21
M  V30 21 1 18 22
M  V30 22 2 22 23
M  V30 23 1 11 24
M  V30 24 2 7 25
M  V30 25 1 25 3
M  V30 26 1 24 8
M  V30 27 1 23 15
M  V30 28 1 1 26
M  V30 29 1 1 27
M  V30 30 1 1 28
M  V30 31 1 4 29
M  V30 32 1 5 30
M  V30 33 1 6 31
M  V30 34 1 11 32
M  V30 35 1 14 33
M  V30 36 1 16 34
M  V30 37 1 17 35
M  V30 38 1 20 36
M  V30 39 1 20 37
M  V30 40 1 20 38
M  V30 41 1 22 39
M  V30 42 1 23 40
M  V30 43 1 24 41
M  V30 44 1 24 42
M  V30 45 1 25 43
M  V30 END BOND
M  V30 END CTAB
M  END
>  <Dataset>  (812) 
ChEMBL_Kinases

>  <Ligand_Instance>  (812) 
nan

>  <PDB_ID>  (812) 
nan

>  <Standardized_SMILES>  (812) 
COc1cccc(C2=NOC(C(=O)Nc3ccc(C(C)=O)cc3)C2)c1

>  <Name>  (812) 
nan

>  <Pocket>  (812) 
nan

>  <ATP_Site>  (812) 
nan

>  <Peripheral>  (812) 
nan

>  <Num_H_Atoms_ProtBoundConf>  (812) 
nan

>  <Num_Resolved_Atoms>  (812) 
nan

>  <Num_Not_Resolved_Atoms>  (812) 
nan

$$$$
CHEMBL1499910
     RDKit          3D

  0  0  0  0  0  0  0  0  0  0999 V3000
M  V30 BEGIN CTAB
M  V30 COUNTS 48 50 0 0 0
M  V30 BEGIN ATOM
M  V30 1 C 4.486358 -0.157677 3.922501 0
M  V30 2 C 4.479201 -0.809385 2.561221 0
M  V30 3 N 4.258640 0.143606 1.487740 0
M  V30 4 C 5.444274 0.737216 0.933993 0
M  V30 5 O 6.592857 0.448119 1.353862 0
M  V30 6 N 5.313079 1.686918 -0.128388 0
M  V30 7 C 4.065890 2.085908 -0.679408 0
M  V30 8 O 3.893465 2.899661 -1.594986 0
M  V30 9 C 2.880884 1.491202 -0.125436 0
M  V30 10 C 1.629468 1.724716 -0.419722 0
M  V30 11 C 0.351319 1.210689 0.035926 0
M  V30 12 C -0.681805 1.868482 0.669741 0
M  V30 13 C -1.707311 0.976003 0.831251 0
M  V30 14 C -2.968377 1.431707 1.499903 0
M  V30 15 N -1.325106 -0.205380 0.312311 0
M  V30 16 C -2.237727 -1.307196 0.362658 0
M  V30 17 S -1.914225 -2.828625 1.182510 0
M  V30 18 C -3.534696 -3.576182 0.740462 0
M  V30 19 C -3.952506 -4.965652 1.152558 0
M  V30 20 C -4.163546 -2.583207 0.007117 0
M  V30 21 C -5.523562 -2.924550 -0.487972 0
M  V30 22 C -3.459224 -1.422737 -0.166616 0
M  V30 23 C -4.042409 -0.320032 -0.926148 0
M  V30 24 N -4.508952 0.563853 -1.554217 0
M  V30 25 C -0.079461 -0.104464 -0.182303 0
M  V30 26 C 0.501578 -1.308430 -0.831120 0
M  V30 27 C 2.995146 0.518868 0.962576 0
M  V30 28 O 2.052973 -0.066419 1.536606 0
M  V30 29 H 5.504545 -0.200290 4.391701 0
M  V30 30 H 3.752525 -0.637928 4.609540 0
M  V30 31 H 4.145300 0.890295 3.798200 0
M  V30 32 H 3.720154 -1.634841 2.548254 0
M  V30 33 H 5.451002 -1.321557 2.428018 0
M  V30 34 H 6.177374 2.116035 -0.527247 0
M  V30 35 H 1.458564 2.485617 -1.192980 0
M  V30 36 H -0.587743 2.916739 0.947317 0
M  V30 37 H -3.586725 2.057035 0.795292 0
M  V30 38 H -3.559695 0.599791 1.920068 0
M  V30 39 H -2.748432 2.122414 2.340739 0
M  V30 40 H -3.456023 -5.225407 2.118600 0
M  V30 41 H -3.612189 -5.718731 0.415222 0
M  V30 42 H -5.042957 -4.931011 1.234398 0
M  V30 43 H -5.513857 -3.659722 -1.303158 0
M  V30 44 H -6.160958 -3.338398 0.340075 0
M  V30 45 H -6.069129 -2.024425 -0.838623 0
M  V30 46 H -0.188090 -1.789491 -1.529479 0
M  V30 47 H 0.802248 -2.058205 -0.060137 0
M  V30 48 H 1.411886 -1.022145 -1.397692 0
M  V30 END ATOM
M  V30 BEGIN BOND
M  V30 1 1 1 2
M  V30 2 1 2 3
M  V30 3 1 3 4
M  V30 4 2 4 5
M  V30 5 1 4 6
M  V30 6 1 6 7
M  V30 7 2 7 8
M  V30 8 1 7 9
M  V30 9 2 9 10
M  V30 10 1 10 11
M  V30 11 1 11 12
M  V30 12 2 12 13
M  V30 13 1 13 14
M  V30 14 1 13 15
M  V30 15 1 15 16
M  V30 16 1 16 17
M  V30 17 1 17 18
M  V30 18 1 18 19
M  V30 19 2 18 20
M  V30 20 1 20 21
M  V30 21 1 20 22
M  V30 22 1 22 23
M  V30 23 3 23 24
M  V30 24 1 15 25
M  V30 25 1 25 26
M  V30 26 1 9 27
M  V30 27 2 27 28
M  V30 28 1 27 3
M  V30 29 2 25 11
M  V30 30 2 22 16
M  V30 31 1 1 29
M  V30 32 1 1 30
M  V30 33 1 1 31
M  V30 34 1 2 32
M  V30 35 1 2 33
M  V30 36 1 6 34
M  V30 37 1 10 35
M  V30 38 1 12 36
M  V30 39 1 14 37
M  V30 40 1 14 38
M  V30 41 1 14 39
M  V30 42 1 19 40
M  V30 43 1 19 41
M  V30 44 1 19 42
M  V30 45 1 21 43
M  V30 46 1 21 44
M  V30 47 1 21 45
M  V30 48 1 26 46
M  V30 49 1 26 47
M  V30 50 1 26 48
M  V30 END BOND
M  V30 END CTAB
M  END
>  <Dataset>  (813) 
ChEMBL_Kinases

>  <Ligand_Instance>  (813) 
nan

>  <PDB_ID>  (813) 
nan

>  <Standardized_SMILES>  (813) 
CCN1C(=O)NC(=O)/C(=C/c2cc(C)n(-c3sc(C)c(C)c3C#N)c2C)C1=O

>  <Name>  (813) 
nan

>  <Pocket>  (813) 
nan

>  <ATP_Site>  (813) 
nan

>  <Peripheral>  (813) 
nan

>  <Num_H_Atoms_ProtBoundConf>  (813) 
nan

>  <Num_Resolved_Atoms>  (813) 
nan

>  <Num_Not_Resolved_Atoms>  (813) 
nan

$$$$
CHEMBL1499892
     RDKit          3D

  0  0  0  0  0  0  0  0  0  0999 V3000
M  V30 BEGIN CTAB
M  V30 COUNTS 45 48 0 0 0
M  V30 BEGIN ATOM
M  V30 1 O 1.435231 0.244833 2.805987 0
M  V30 2 C 0.673283 0.587237 1.838399 0
M  V30 3 C 1.740102 0.352399 0.874991 0
M  V30 4 C 2.144187 -0.778482 0.194174 0
M  V30 5 C 3.205075 -0.769317 -0.685724 0
M  V30 6 C 3.490197 -1.971292 -1.289659 0
M  V30 7 C 4.555658 -1.977577 -2.178273 0
M  V30 8 C 5.289107 -0.816474 -2.434478 0
M  V30 9 C 4.959912 0.363146 -1.800678 0
M  V30 10 C 3.904750 0.397222 -0.912152 0
M  V30 11 O 3.550395 1.513964 -0.276565 0
M  V30 12 C 2.521431 1.480833 0.569500 0
M  V30 13 O 2.350481 2.630796 1.062959 0
M  V30 14 N -0.705632 1.029122 1.792877 0
M  V30 15 C -1.182108 1.326067 0.481487 0
M  V30 16 C -1.801434 0.249290 -0.209784 0
M  V30 17 C -1.424071 -0.809027 -0.984410 0
M  V30 18 C -2.320538 -1.663869 -1.554820 0
M  V30 19 C -3.699213 -1.378788 -1.287617 0
M  V30 20 S -3.556283 0.158025 -0.194718 0
M  V30 21 C -1.351035 1.143239 3.069807 0
M  V30 22 C -2.026727 -0.032097 3.645165 0
M  V30 23 C -1.182785 -1.109859 4.234786 0
M  V30 24 C -1.240448 -2.146823 3.120652 0
M  V30 25 C -2.625777 -1.879823 2.558750 0
M  V30 26 O -3.020975 -0.623339 2.917139 0
M  V30 27 H 1.506808 -1.635048 0.463470 0
M  V30 28 H 2.938056 -2.882186 -1.108021 0
M  V30 29 H 4.864920 -2.870756 -2.708105 0
M  V30 30 H 6.127372 -0.765910 -3.116682 0
M  V30 31 H 5.520506 1.280033 -1.987525 0
M  V30 32 H -0.336816 1.710994 -0.184999 0
M  V30 33 H -1.825850 2.263231 0.547393 0
M  V30 34 H -0.361412 -0.916706 -1.117006 0
M  V30 35 H -2.041075 -2.505699 -2.169851 0
M  V30 36 H -4.521154 -2.057188 -1.735239 0
M  V30 37 H -0.589310 1.494402 3.831929 0
M  V30 38 H -2.091717 1.981147 2.991511 0
M  V30 39 H -2.601553 0.398276 4.565187 0
M  V30 40 H -0.197078 -0.856614 4.576922 0
M  V30 41 H -1.718100 -1.577233 5.100957 0
M  V30 42 H -0.432539 -2.030318 2.398084 0
M  V30 43 H -1.177472 -3.177784 3.527646 0
M  V30 44 H -3.305076 -2.640356 3.007989 0
M  V30 45 H -2.612458 -2.104696 1.478691 0
M  V30 END ATOM
M  V30 BEGIN BOND
M  V30 1 2 1 2
M  V30 2 1 2 3
M  V30 3 2 3 4
M  V30 4 1 4 5
M  V30 5 2 5 6
M  V30 6 1 6 7
M  V30 7 2 7 8
M  V30 8 1 8 9
M  V30 9 2 9 10
M  V30 10 1 10 11
M  V30 11 1 11 12
M  V30 12 2 12 13
M  V30 13 1 2 14
M  V30 14 1 14 15
M  V30 15 1 15 16
M  V30 16 2 16 17
M  V30 17 1 17 18
M  V30 18 2 18 19
M  V30 19 1 19 20
M  V30 20 1 14 21
M  V30 21 1 21 22
M  V30 22 1 22 23
M  V30 23 1 23 24
M  V30 24 1 24 25
M  V30 25 1 25 26
M  V30 26 1 12 3
M  V30 27 1 20 16
M  V30 28 1 26 22
M  V30 29 1 10 5
M  V30 30 1 4 27
M  V30 31 1 6 28
M  V30 32 1 7 29
M  V30 33 1 8 30
M  V30 34 1 9 31
M  V30 35 1 15 32
M  V30 36 1 15 33
M  V30 37 1 17 34
M  V30 38 1 18 35
M  V30 39 1 19 36
M  V30 40 1 21 37
M  V30 41 1 21 38
M  V30 42 1 22 39
M  V30 43 1 23 40
M  V30 44 1 23 41
M  V30 45 1 24 42
M  V30 46 1 24 43
M  V30 47 1 25 44
M  V30 48 1 25 45
M  V30 END BOND
M  V30 END CTAB
M  END
>  <Dataset>  (814) 
ChEMBL_Kinases

>  <Ligand_Instance>  (814) 
nan

>  <PDB_ID>  (814) 
nan

>  <Standardized_SMILES>  (814) 
O=C(c1cc2ccccc2oc1=O)N(Cc1cccs1)CC1CCCO1

>  <Name>  (814) 
nan

>  <Pocket>  (814) 
nan

>  <ATP_Site>  (814) 
nan

>  <Peripheral>  (814) 
nan

>  <Num_H_Atoms_ProtBoundConf>  (814) 
nan

>  <Num_Resolved_Atoms>  (814) 
nan

>  <Num_Not_Resolved_Atoms>  (814) 
nan

$$$$
CHEMBL1467640
     RDKit          3D

  0  0  0  0  0  0  0  0  0  0999 V3000
M  V30 BEGIN CTAB
M  V30 COUNTS 39 42 0 0 0
M  V30 BEGIN ATOM
M  V30 1 C 1.276066 -6.538734 3.229325 0
M  V30 2 C 1.838622 -5.145706 3.349709 0
M  V30 3 C 3.010175 -4.873442 4.195313 0
M  V30 4 S 3.228051 -3.008125 3.946363 0
M  V30 5 C 1.807563 -2.957054 2.835879 0
M  V30 6 N 1.147382 -1.873379 2.092838 0
M  V30 7 C 1.411270 -1.372596 0.798171 0
M  V30 8 O 2.239191 -1.651274 -0.105907 0
M  V30 9 C 0.563722 -0.280308 0.340889 0
M  V30 10 C 0.966836 0.993468 0.037557 0
M  V30 11 C 0.080660 1.937890 -0.384525 0
M  V30 12 C 0.455573 3.290926 -0.713823 0
M  V30 13 C -0.549256 4.171507 -1.129869 0
M  V30 14 C -0.298159 5.493006 -1.474979 0
M  V30 15 N 0.950298 5.977303 -1.418116 0
M  V30 16 C 1.941947 5.142953 -1.017569 0
M  V30 17 C 1.707566 3.819131 -0.668887 0
M  V30 18 N -1.226667 1.607463 -0.506133 0
M  V30 19 C -1.704497 0.371073 -0.226771 0
M  V30 20 C -3.036434 0.121619 -0.379544 0
M  V30 21 C -3.535991 -1.131726 -0.101312 0
M  V30 22 C -2.660622 -2.110745 0.329696 0
M  V30 23 C -1.321273 -1.803729 0.466734 0
M  V30 24 C -0.791433 -0.569890 0.199055 0
M  V30 25 N 1.368173 -4.070144 2.744712 0
M  V30 26 H 0.181260 -6.436235 2.995188 0
M  V30 27 H 1.714305 -7.115019 2.417197 0
M  V30 28 H 1.310843 -7.052990 4.208541 0
M  V30 29 H 3.486376 -5.841456 4.779306 0
M  V30 30 H 0.405155 -1.483586 2.672134 0
M  V30 31 H 2.008508 1.210892 0.148018 0
M  V30 32 H -1.601643 3.865761 -1.206832 0
M  V30 33 H -1.116364 6.140107 -1.793700 0
M  V30 34 H 2.931660 5.561072 -0.982360 0
M  V30 35 H 2.505928 3.171673 -0.353127 0
M  V30 36 H -3.737374 0.859225 -0.710346 0
M  V30 37 H -4.596946 -1.350802 -0.216283 0
M  V30 38 H -3.063872 -3.104737 0.548858 0
M  V30 39 H -0.709633 -2.604195 0.800713 0
M  V30 END ATOM
M  V30 BEGIN BOND
M  V30 1 1 1 2
M  V30 2 2 2 3
M  V30 3 1 3 4
M  V30 4 1 4 5
M  V30 5 1 5 6
M  V30 6 1 6 7
M  V30 7 2 7 8
M  V30 8 1 7 9
M  V30 9 2 9 10
M  V30 10 1 10 11
M  V30 11 1 11 12
M  V30 12 2 12 13
M  V30 13 1 13 14
M  V30 14 2 14 15
M  V30 15 1 15 16
M  V30 16 2 16 17
M  V30 17 2 11 18
M  V30 18 1 18 19
M  V30 19 2 19 20
M  V30 20 1 20 21
M  V30 21 2 21 22
M  V30 22 1 22 23
M  V30 23 2 23 24
M  V30 24 2 5 25
M  V30 25 1 25 2
M  V30 26 1 24 9
M  V30 27 1 17 12
M  V30 28 1 24 19
M  V30 29 1 1 26
M  V30 30 1 1 27
M  V30 31 1 1 28
M  V30 32 1 3 29
M  V30 33 1 6 30
M  V30 34 1 10 31
M  V30 35 1 13 32
M  V30 36 1 14 33
M  V30 37 1 16 34
M  V30 38 1 17 35
M  V30 39 1 20 36
M  V30 40 1 21 37
M  V30 41 1 22 38
M  V30 42 1 23 39
M  V30 END BOND
M  V30 END CTAB
M  END
>  <Dataset>  (815) 
ChEMBL_Kinases

>  <Ligand_Instance>  (815) 
nan

>  <PDB_ID>  (815) 
nan

>  <Standardized_SMILES>  (815) 
Cc1csc(NC(=O)c2cc(-c3ccncc3)nc3ccccc23)n1

>  <Name>  (815) 
nan

>  <Pocket>  (815) 
nan

>  <ATP_Site>  (815) 
nan

>  <Peripheral>  (815) 
nan

>  <Num_H_Atoms_ProtBoundConf>  (815) 
nan

>  <Num_Resolved_Atoms>  (815) 
nan

>  <Num_Not_Resolved_Atoms>  (815) 
nan

$$$$
CHEMBL1497501
     RDKit          3D

  0  0  0  0  0  0  0  0  0  0999 V3000
M  V30 BEGIN CTAB
M  V30 COUNTS 52 54 0 0 0
M  V30 BEGIN ATOM
M  V30 1 C 0.640516 -2.012069 3.716831 0
M  V30 2 C 2.086125 -2.025405 3.337745 0
M  V30 3 C 2.942784 -2.106072 4.576781 0
M  V30 4 C 2.365313 -3.258920 2.506685 0
M  V30 5 C 2.446201 -0.832840 2.510292 0
M  V30 6 O 3.363598 -0.064979 2.969344 0
M  V30 7 N 1.842340 -0.489988 1.248699 0
M  V30 8 C 2.488326 0.717837 0.808957 0
M  V30 9 C 2.038369 1.292634 -0.475751 0
M  V30 10 C 0.635880 1.735396 -0.567667 0
M  V30 11 N 0.392208 3.029454 -0.195628 0
M  V30 12 C -0.910454 3.305689 -0.368202 0
M  V30 13 C -1.615792 4.484481 -0.127521 0
M  V30 14 C -2.984686 4.464192 -0.410207 0
M  V30 15 C -3.593374 3.340774 -0.897831 0
M  V30 16 C -2.865730 2.171493 -1.130814 0
M  V30 17 C -1.514269 2.176278 -0.856738 0
M  V30 18 N -0.551585 1.256834 -0.961439 0
M  V30 19 C -0.782554 -0.043712 -1.464096 0
M  V30 20 C -1.256691 -1.031362 -0.512341 0
M  V30 21 O -1.429167 -0.481751 0.630815 0
M  V30 22 C -1.490469 -2.428928 -0.843266 0
M  V30 23 C -1.292333 -2.998702 -2.090441 0
M  V30 24 C -1.557962 -4.334419 -2.265440 0
M  V30 25 C -2.020657 -5.107568 -1.203409 0
M  V30 26 Cl -2.349072 -6.815115 -1.473131 0
M  V30 27 C -2.219441 -4.530189 0.053847 0
M  V30 28 C -1.947480 -3.179835 0.217722 0
M  V30 29 H 0.488723 -2.630414 4.629372 0
M  V30 30 H 0.084616 -2.563825 2.908172 0
M  V30 31 H 0.221746 -0.977150 3.842828 0
M  V30 32 H 2.659979 -3.038687 5.107684 0
M  V30 33 H 2.830615 -1.210278 5.229776 0
M  V30 34 H 4.004451 -2.271969 4.260764 0
M  V30 35 H 3.295717 -3.106698 1.885820 0
M  V30 36 H 1.531736 -3.555408 1.864434 0
M  V30 37 H 2.621783 -4.144266 3.159769 0
M  V30 38 H 1.132131 -1.220653 1.039961 0
M  V30 39 H 3.591387 0.588379 0.751240 0
M  V30 40 H 2.276680 1.502737 1.599012 0
M  V30 41 H 2.753627 2.108159 -0.739187 0
M  V30 42 H 2.198432 0.552334 -1.328219 0
M  V30 43 H -1.173095 5.390668 0.256497 0
M  V30 44 H -3.639281 5.318020 -0.264884 0
M  V30 45 H -4.640418 3.260320 -1.134890 0
M  V30 46 H -3.307391 1.255852 -1.517492 0
M  V30 47 H 0.150167 -0.377232 -2.009264 0
M  V30 48 H -1.543214 0.000970 -2.299753 0
M  V30 49 H -0.932005 -2.332949 -2.861639 0
M  V30 50 H -1.396599 -4.758472 -3.247182 0
M  V30 51 H -2.583935 -5.135231 0.894589 0
M  V30 52 H -2.121455 -2.783958 1.222484 0
M  V30 END ATOM
M  V30 BEGIN BOND
M  V30 1 1 1 2
M  V30 2 1 2 3
M  V30 3 1 2 4
M  V30 4 1 2 5
M  V30 5 2 5 6
M  V30 6 1 5 7
M  V30 7 1 7 8
M  V30 8 1 8 9
M  V30 9 1 9 10
M  V30 10 2 10 11
M  V30 11 1 11 12
M  V30 12 2 12 13
M  V30 13 1 13 14
M  V30 14 2 14 15
M  V30 15 1 15 16
M  V30 16 2 16 17
M  V30 17 1 17 18
M  V30 18 1 18 19
M  V30 19 1 19 20
M  V30 20 2 20 21
M  V30 21 1 20 22
M  V30 22 2 22 23
M  V30 23 1 23 24
M  V30 24 2 24 25
M  V30 25 1 25 26
M  V30 26 1 25 27
M  V30 27 2 27 28
M  V30 28 1 18 10
M  V30 29 1 28 22
M  V30 30 1 17 12
M  V30 31 1 1 29
M  V30 32 1 1 30
M  V30 33 1 1 31
M  V30 34 1 3 32
M  V30 35 1 3 33
M  V30 36 1 3 34
M  V30 37 1 4 35
M  V30 38 1 4 36
M  V30 39 1 4 37
M  V30 40 1 7 38
M  V30 41 1 8 39
M  V30 42 1 8 40
M  V30 43 1 9 41
M  V30 44 1 9 42
M  V30 45 1 13 43
M  V30 46 1 14 44
M  V30 47 1 15 45
M  V30 48 1 16 46
M  V30 49 1 19 47
M  V30 50 1 19 48
M  V30 51 1 23 49
M  V30 52 1 24 50
M  V30 53 1 27 51
M  V30 54 1 28 52
M  V30 END BOND
M  V30 END CTAB
M  END
>  <Dataset>  (816) 
ChEMBL_Kinases

>  <Ligand_Instance>  (816) 
nan

>  <PDB_ID>  (816) 
nan

>  <Standardized_SMILES>  (816) 
CC(C)(C)C(=O)NCCc1nc2ccccc2n1CC(=O)c1ccc(Cl)cc1

>  <Name>  (816) 
nan

>  <Pocket>  (816) 
nan

>  <ATP_Site>  (816) 
nan

>  <Peripheral>  (816) 
nan

>  <Num_H_Atoms_ProtBoundConf>  (816) 
nan

>  <Num_Resolved_Atoms>  (816) 
nan

>  <Num_Not_Resolved_Atoms>  (816) 
nan

$$$$
CHEMBL1497531
     RDKit          3D

  0  0  0  0  0  0  0  0  0  0999 V3000
M  V30 BEGIN CTAB
M  V30 COUNTS 60 60 0 0 0
M  V30 BEGIN ATOM
M  V30 1 C -0.901741 2.758378 3.708578 0
M  V30 2 O -0.349604 1.843809 2.776224 0
M  V30 3 C 1.048931 1.808254 2.661475 0
M  V30 4 O 1.811325 2.542065 3.345530 0
M  V30 5 C 1.989744 1.006222 1.814303 0
M  V30 6 C 2.974476 0.271785 2.676419 0
M  V30 7 C 3.881471 -0.517023 1.763343 0
M  V30 8 S 4.799032 0.468250 0.596127 0
M  V30 9 C 6.005491 1.555984 1.338506 0
M  V30 10 N 1.209790 0.120157 0.981320 0
M  V30 11 C 1.240891 0.340059 -0.439811 0
M  V30 12 O 1.883783 1.235738 -1.039829 0
M  V30 13 C 0.525206 -0.442215 -1.447185 0
M  V30 14 N -0.273469 -1.534227 -0.908153 0
M  V30 15 C -1.629393 -1.781953 -1.267290 0
M  V30 16 O -2.133888 -0.974564 -2.120192 0
M  V30 17 C -2.116585 -2.966240 -0.523053 0
M  V30 18 C -3.484072 -3.323872 -1.041835 0
M  V30 19 C -4.420394 -2.236613 -0.576140 0
M  V30 20 C -4.540843 -2.425008 0.917512 0
M  V30 21 C -5.587498 -1.452358 1.410664 0
M  V30 22 C -3.242381 -2.231638 1.633742 0
M  V30 23 C -2.051742 -2.812075 0.955600 0
M  V30 24 C 1.467281 -0.961992 -2.525995 0
M  V30 25 C 0.642437 -1.748326 -3.536722 0
M  V30 26 C 2.554547 -1.841177 -2.009511 0
M  V30 27 H -1.432766 2.217011 4.503486 0
M  V30 28 H -0.099971 3.405290 4.153296 0
M  V30 29 H -1.613775 3.457268 3.221095 0
M  V30 30 H 2.561872 1.695827 1.144412 0
M  V30 31 H 2.466274 -0.456180 3.337085 0
M  V30 32 H 3.501805 0.984753 3.319728 0
M  V30 33 H 3.207986 -1.203412 1.197657 0
M  V30 34 H 4.589902 -1.166749 2.313335 0
M  V30 35 H 5.534210 2.039936 2.225068 0
M  V30 36 H 6.224266 2.381379 0.633461 0
M  V30 37 H 6.967334 1.070649 1.579865 0
M  V30 38 H 0.631742 -0.660575 1.340155 0
M  V30 39 H -0.170634 0.224538 -1.995295 0
M  V30 40 H 0.364071 -2.026554 -0.252857 0
M  V30 41 H -1.438001 -3.820386 -0.822126 0
M  V30 42 H -3.469494 -3.445928 -2.138510 0
M  V30 43 H -3.794338 -4.277283 -0.552875 0
M  V30 44 H -5.437886 -2.364103 -1.003985 0
M  V30 45 H -3.990468 -1.251120 -0.742320 0
M  V30 46 H -4.936803 -3.447049 1.074008 0
M  V30 47 H -5.707107 -1.458598 2.508182 0
M  V30 48 H -5.264430 -0.403859 1.155424 0
M  V30 49 H -6.558493 -1.593441 0.890529 0
M  V30 50 H -3.098586 -1.130892 1.725758 0
M  V30 51 H -3.364307 -2.611462 2.664592 0
M  V30 52 H -1.852417 -3.822357 1.394970 0
M  V30 53 H -1.131664 -2.239916 1.193501 0
M  V30 54 H 1.896707 -0.090919 -3.033422 0
M  V30 55 H -0.107936 -1.064893 -3.990872 0
M  V30 56 H 1.324217 -2.205099 -4.285540 0
M  V30 57 H 0.183201 -2.601788 -2.993028 0
M  V30 58 H 2.650860 -2.793165 -2.582288 0
M  V30 59 H 2.490175 -2.056964 -0.911134 0
M  V30 60 H 3.528331 -1.330343 -2.150107 0
M  V30 END ATOM
M  V30 BEGIN BOND
M  V30 1 1 1 2
M  V30 2 1 2 3
M  V30 3 2 3 4
M  V30 4 1 3 5
M  V30 5 1 5 6
M  V30 6 1 6 7
M  V30 7 1 7 8
M  V30 8 1 8 9
M  V30 9 1 5 10
M  V30 10 1 10 11
M  V30 11 2 11 12
M  V30 12 1 11 13
M  V30 13 1 13 14
M  V30 14 1 14 15
M  V30 15 2 15 16
M  V30 16 1 15 17
M  V30 17 1 17 18
M  V30 18 1 18 19
M  V30 19 1 19 20
M  V30 20 1 20 21
M  V30 21 1 20 22
M  V30 22 1 22 23
M  V30 23 1 13 24
M  V30 24 1 24 25
M  V30 25 1 24 26
M  V30 26 1 23 17
M  V30 27 1 1 27
M  V30 28 1 1 28
M  V30 29 1 1 29
M  V30 30 1 5 30
M  V30 31 1 6 31
M  V30 32 1 6 32
M  V30 33 1 7 33
M  V30 34 1 7 34
M  V30 35 1 9 35
M  V30 36 1 9 36
M  V30 37 1 9 37
M  V30 38 1 10 38
M  V30 39 1 13 39
M  V30 40 1 14 40
M  V30 41 1 17 41
M  V30 42 1 18 42
M  V30 43 1 18 43
M  V30 44 1 19 44
M  V30 45 1 19 45
M  V30 46 1 20 46
M  V30 47 1 21 47
M  V30 48 1 21 48
M  V30 49 1 21 49
M  V30 50 1 22 50
M  V30 51 1 22 51
M  V30 52 1 23 52
M  V30 53 1 23 53
M  V30 54 1 24 54
M  V30 55 1 25 55
M  V30 56 1 25 56
M  V30 57 1 25 57
M  V30 58 1 26 58
M  V30 59 1 26 59
M  V30 60 1 26 60
M  V30 END BOND
M  V30 END CTAB
M  END
>  <Dataset>  (817) 
ChEMBL_Kinases

>  <Ligand_Instance>  (817) 
nan

>  <PDB_ID>  (817) 
nan

>  <Standardized_SMILES>  (817) 
COC(=O)C(CCSC)NC(=O)C(NC(=O)C1CCC(C)CC1)C(C)C

>  <Name>  (817) 
nan

>  <Pocket>  (817) 
nan

>  <ATP_Site>  (817) 
nan

>  <Peripheral>  (817) 
nan

>  <Num_H_Atoms_ProtBoundConf>  (817) 
nan

>  <Num_Resolved_Atoms>  (817) 
nan

>  <Num_Not_Resolved_Atoms>  (817) 
nan

$$$$
CHEMBL1497794
     RDKit          3D

  0  0  0  0  0  0  0  0  0  0999 V3000
M  V30 BEGIN CTAB
M  V30 COUNTS 49 51 0 0 0
M  V30 BEGIN ATOM
M  V30 1 C -1.718350 -6.724713 0.476236 0
M  V30 2 C -0.628690 -5.719947 0.585211 0
M  V30 3 C -0.517887 -5.040318 1.772620 0
M  V30 4 C 0.469322 -4.086362 1.960211 0
M  V30 5 C 1.360529 -3.806793 0.944748 0
M  V30 6 N 2.369642 -2.805618 1.189394 0
M  V30 7 C 2.049940 -1.450317 0.861598 0
M  V30 8 O 0.877484 -1.478695 0.407526 0
M  V30 9 C 3.205771 -0.536252 1.176625 0
M  V30 10 C 2.742610 0.855751 0.788514 0
M  V30 11 N 2.402193 0.967462 -0.600645 0
M  V30 12 S 1.897466 2.589124 -0.897071 0
M  V30 13 O 3.035508 3.514679 -0.616906 0
M  V30 14 O 1.593022 2.688975 -2.366046 0
M  V30 15 C 0.474722 3.005386 0.042234 0
M  V30 16 C 0.558425 3.552277 1.307462 0
M  V30 17 C -0.612094 3.843872 1.962654 0
M  V30 18 C -1.837267 3.599781 1.378975 0
M  V30 19 C -1.909659 3.050921 0.109376 0
M  V30 20 C -0.749356 2.746973 -0.574527 0
M  V30 21 O -3.188403 2.935173 -0.178566 0
M  V30 22 C -3.885685 3.387886 0.856535 0
M  V30 23 O -5.159931 3.421805 0.914555 0
M  V30 24 N -3.080418 3.811598 1.848626 0
M  V30 25 C -3.453946 4.367046 3.126290 0
M  V30 26 C 1.261306 -4.484966 -0.260284 0
M  V30 27 C 0.275938 -5.434381 -0.441903 0
M  V30 28 C 0.120770 -6.183649 -1.692323 0
M  V30 29 H -2.598693 -6.336801 1.067945 0
M  V30 30 H -1.487855 -7.693078 0.920005 0
M  V30 31 H -2.110954 -6.823246 -0.568535 0
M  V30 32 H -1.207160 -5.241013 2.589573 0
M  V30 33 H 0.551937 -3.558862 2.887831 0
M  V30 34 H 3.232451 -3.278243 1.597407 0
M  V30 35 H 3.355995 -0.540118 2.269579 0
M  V30 36 H 4.095289 -0.849301 0.595743 0
M  V30 37 H 1.815640 1.075514 1.357996 0
M  V30 38 H 3.475437 1.629720 1.090636 0
M  V30 39 H 1.640064 0.329818 -0.857440 0
M  V30 40 H 1.549711 3.706969 1.680777 0
M  V30 41 H -0.464145 4.272843 2.956401 0
M  V30 42 H -0.826291 2.314614 -1.574957 0
M  V30 43 H -2.566073 4.387734 3.792914 0
M  V30 44 H -4.254685 3.798033 3.643758 0
M  V30 45 H -3.869344 5.375824 2.943826 0
M  V30 46 H 1.970180 -4.258283 -1.059188 0
M  V30 47 H -0.893291 -6.027677 -2.111748 0
M  V30 48 H 0.406253 -7.241070 -1.619096 0
M  V30 49 H 0.825472 -5.737524 -2.438947 0
M  V30 END ATOM
M  V30 BEGIN BOND
M  V30 1 1 1 2
M  V30 2 2 2 3
M  V30 3 1 3 4
M  V30 4 2 4 5
M  V30 5 1 5 6
M  V30 6 1 6 7
M  V30 7 2 7 8
M  V30 8 1 7 9
M  V30 9 1 9 10
M  V30 10 1 10 11
M  V30 11 1 11 12
M  V30 12 2 12 13
M  V30 13 2 12 14
M  V30 14 1 12 15
M  V30 15 2 15 16
M  V30 16 1 16 17
M  V30 17 2 17 18
M  V30 18 1 18 19
M  V30 19 2 19 20
M  V30 20 1 19 21
M  V30 21 1 21 22
M  V30 22 2 22 23
M  V30 23 1 22 24
M  V30 24 1 24 25
M  V30 25 1 5 26
M  V30 26 2 26 27
M  V30 27 1 27 28
M  V30 28 1 27 2
M  V30 29 1 20 15
M  V30 30 1 24 18
M  V30 31 1 1 29
M  V30 32 1 1 30
M  V30 33 1 1 31
M  V30 34 1 3 32
M  V30 35 1 4 33
M  V30 36 1 6 34
M  V30 37 1 9 35
M  V30 38 1 9 36
M  V30 39 1 10 37
M  V30 40 1 10 38
M  V30 41 1 11 39
M  V30 42 1 16 40
M  V30 43 1 17 41
M  V30 44 1 20 42
M  V30 45 1 25 43
M  V30 46 1 25 44
M  V30 47 1 25 45
M  V30 48 1 26 46
M  V30 49 1 28 47
M  V30 50 1 28 48
M  V30 51 1 28 49
M  V30 END BOND
M  V30 END CTAB
M  END
>  <Dataset>  (818) 
ChEMBL_Kinases

>  <Ligand_Instance>  (818) 
nan

>  <PDB_ID>  (818) 
nan

>  <Standardized_SMILES>  (818) 
Cc1ccc(NC(=O)CCNS(=O)(=O)c2ccc3c(c2)oc(=O)n3C)cc1C

>  <Name>  (818) 
nan

>  <Pocket>  (818) 
nan

>  <ATP_Site>  (818) 
nan

>  <Peripheral>  (818) 
nan

>  <Num_H_Atoms_ProtBoundConf>  (818) 
nan

>  <Num_Resolved_Atoms>  (818) 
nan

>  <Num_Not_Resolved_Atoms>  (818) 
nan

$$$$
CHEMBL1497908
     RDKit          3D

  0  0  0  0  0  0  0  0  0  0999 V3000
M  V30 BEGIN CTAB
M  V30 COUNTS 50 52 0 0 0
M  V30 BEGIN ATOM
M  V30 1 C 3.182910 -7.261024 -0.624309 0
M  V30 2 O 2.338563 -6.883573 0.455909 0
M  V30 3 C 1.797447 -5.604331 0.368524 0
M  V30 4 C 2.088736 -4.785428 -0.713409 0
M  V30 5 C 1.547126 -3.503045 -0.803122 0
M  V30 6 C 0.711789 -3.007863 0.169171 0
M  V30 7 C 0.096247 -1.691856 0.178972 0
M  V30 8 C 0.348020 -0.876308 -0.818957 0
M  V30 9 C -0.245332 0.443354 -0.845515 0
M  V30 10 O -0.198753 1.413403 -1.636093 0
M  V30 11 N -1.070289 1.447368 -0.268737 0
M  V30 12 C -1.823556 1.435735 0.977604 0
M  V30 13 C -1.020882 1.965733 2.111432 0
M  V30 14 C -1.094683 3.339120 2.357083 0
M  V30 15 C -0.385165 3.939357 3.393454 0
M  V30 16 C 0.423989 3.183443 4.220583 0
M  V30 17 C 0.487523 1.829883 3.966823 0
M  V30 18 C -0.211093 1.220503 2.941883 0
M  V30 19 C -1.119032 2.613404 -1.083344 0
M  V30 20 C -0.303417 3.727016 -1.072073 0
M  V30 21 C -0.534946 4.754230 -1.962077 0
M  V30 22 C -1.563728 4.699550 -2.867408 0
M  V30 23 C -2.351867 3.569006 -2.842262 0
M  V30 24 N -2.139175 2.555038 -1.978247 0
M  V30 25 C 0.468522 -3.876439 1.210886 0
M  V30 26 C 0.962981 -5.130546 1.355435 0
M  V30 27 O 0.622667 -5.893323 2.474277 0
M  V30 28 C -0.241662 -5.346426 3.449369 0
M  V30 29 H 4.051520 -6.552032 -0.643257 0
M  V30 30 H 3.560879 -8.278801 -0.472518 0
M  V30 31 H 2.648178 -7.220268 -1.587339 0
M  V30 32 H 2.741380 -5.109521 -1.519631 0
M  V30 33 H 1.783376 -2.885280 -1.645702 0
M  V30 34 H -0.551231 -1.401436 0.990301 0
M  V30 35 H 0.968035 -1.043225 -1.680657 0
M  V30 36 H -2.760041 2.014829 0.836558 0
M  V30 37 H -2.173433 0.408894 1.234390 0
M  V30 38 H -1.720593 3.969936 1.728061 0
M  V30 39 H -0.425208 4.995778 3.603002 0
M  V30 40 H 0.996507 3.597365 5.039907 0
M  V30 41 H 1.110784 1.214002 4.595740 0
M  V30 42 H -0.153686 0.164187 2.753515 0
M  V30 43 H 0.466824 3.658431 -0.321637 0
M  V30 44 H 0.140458 5.593575 -1.898639 0
M  V30 45 H -1.721332 5.532552 -3.561862 0
M  V30 46 H -3.168227 3.523301 -3.558635 0
M  V30 47 H -0.195864 -3.514146 2.008547 0
M  V30 48 H -0.451334 -6.081097 4.247053 0
M  V30 49 H -1.223388 -5.067178 2.996258 0
M  V30 50 H 0.204977 -4.437288 3.909956 0
M  V30 END ATOM
M  V30 BEGIN BOND
M  V30 1 1 1 2
M  V30 2 1 2 3
M  V30 3 2 3 4
M  V30 4 1 4 5
M  V30 5 2 5 6
M  V30 6 1 6 7
M  V30 7 2 7 8
M  V30 8 1 8 9
M  V30 9 2 9 10
M  V30 10 1 9 11
M  V30 11 1 11 12
M  V30 12 1 12 13
M  V30 13 2 13 14
M  V30 14 1 14 15
M  V30 15 2 15 16
M  V30 16 1 16 17
M  V30 17 2 17 18
M  V30 18 1 11 19
M  V30 19 2 19 20
M  V30 20 1 20 21
M  V30 21 2 21 22
M  V30 22 1 22 23
M  V30 23 2 23 24
M  V30 24 1 6 25
M  V30 25 2 25 26
M  V30 26 1 26 27
M  V30 27 1 27 28
M  V30 28 1 26 3
M  V30 29 1 18 13
M  V30 30 1 24 19
M  V30 31 1 1 29
M  V30 32 1 1 30
M  V30 33 1 1 31
M  V30 34 1 4 32
M  V30 35 1 5 33
M  V30 36 1 7 34
M  V30 37 1 8 35
M  V30 38 1 12 36
M  V30 39 1 12 37
M  V30 40 1 14 38
M  V30 41 1 15 39
M  V30 42 1 16 40
M  V30 43 1 17 41
M  V30 44 1 18 42
M  V30 45 1 20 43
M  V30 46 1 21 44
M  V30 47 1 22 45
M  V30 48 1 23 46
M  V30 49 1 25 47
M  V30 50 1 28 48
M  V30 51 1 28 49
M  V30 52 1 28 50
M  V30 END BOND
M  V30 END CTAB
M  END
>  <Dataset>  (819) 
ChEMBL_Kinases

>  <Ligand_Instance>  (819) 
nan

>  <PDB_ID>  (819) 
nan

>  <Standardized_SMILES>  (819) 
COc1ccc(/C=C/C(=O)N(Cc2ccccc2)c2ccccn2)cc1OC

>  <Name>  (819) 
nan

>  <Pocket>  (819) 
nan

>  <ATP_Site>  (819) 
nan

>  <Peripheral>  (819) 
nan

>  <Num_H_Atoms_ProtBoundConf>  (819) 
nan

>  <Num_Resolved_Atoms>  (819) 
nan

>  <Num_Not_Resolved_Atoms>  (819) 
nan

$$$$
CHEMBL1497927
     RDKit          3D

  0  0  0  0  0  0  0  0  0  0999 V3000
M  V30 BEGIN CTAB
M  V30 COUNTS 57 60 0 0 0
M  V30 BEGIN ATOM
M  V30 1 C 5.328509 -5.338516 1.935359 0
M  V30 2 O 4.679385 -4.125256 2.269198 0
M  V30 3 C 3.698435 -3.586247 1.446862 0
M  V30 4 C 3.283668 -4.170603 0.266541 0
M  V30 5 C 2.304524 -3.607912 -0.529000 0
M  V30 6 C 1.739930 -2.423524 -0.106235 0
M  V30 7 C 2.119085 -1.802480 1.061769 0
M  V30 8 C 3.103101 -2.398436 1.830036 0
M  V30 9 O 3.510250 -1.800326 3.013804 0
M  V30 10 C 2.932609 -0.583839 3.451330 0
M  V30 11 C 0.711624 -1.828796 -0.937273 0
M  V30 12 C 0.082439 -0.646860 -0.608095 0
M  V30 13 C -0.908915 -0.085699 -1.421992 0
M  V30 14 N -1.574488 1.134081 -1.097472 0
M  V30 15 C -1.394656 1.962372 0.035162 0
M  V30 16 C -1.682479 1.416952 1.372515 0
M  V30 17 C -2.717624 0.330076 1.454063 0
M  V30 18 C -4.027503 0.782282 2.053975 0
M  V30 19 C -4.503676 2.093663 1.462712 0
M  V30 20 C -4.392009 2.168592 -0.002187 0
M  V30 21 C -3.510708 3.188067 -0.611046 0
M  V30 22 C -2.108446 3.298744 -0.187352 0
M  V30 23 N -1.210241 -0.766875 -2.542097 0
M  V30 24 C -0.570460 -1.911379 -2.818188 0
M  V30 25 O -0.986444 -2.415402 -3.917437 0
M  V30 26 N 0.385199 -2.483004 -2.064754 0
M  V30 27 C 0.902060 -3.704406 -2.591438 0
M  V30 28 C 1.958917 -4.340465 -1.764670 0
M  V30 29 H 5.754648 -5.825827 2.849254 0
M  V30 30 H 4.573463 -6.094863 1.570156 0
M  V30 31 H 6.075848 -5.243325 1.131922 0
M  V30 32 H 3.759269 -5.084864 -0.004097 0
M  V30 33 H 1.710240 -0.887475 1.426688 0
M  V30 34 H 3.071960 0.219601 2.699484 0
M  V30 35 H 3.440639 -0.242847 4.375168 0
M  V30 36 H 1.851948 -0.725227 3.716521 0
M  V30 37 H 0.322178 -0.105014 0.277212 0
M  V30 38 H -2.294971 1.438195 -1.821014 0
M  V30 39 H -0.291658 2.235150 0.033897 0
M  V30 40 H -2.130272 2.267006 1.977704 0
M  V30 41 H -0.760998 1.177878 1.942877 0
M  V30 42 H -2.317511 -0.436174 2.168691 0
M  V30 43 H -2.923128 -0.208007 0.536240 0
M  V30 44 H -3.923051 0.903461 3.138748 0
M  V30 45 H -4.763916 -0.026303 1.860220 0
M  V30 46 H -5.588779 2.121271 1.767196 0
M  V30 47 H -4.058229 2.908482 2.053283 0
M  V30 48 H -5.420086 2.340485 -0.445879 0
M  V30 49 H -4.163376 1.134209 -0.368701 0
M  V30 50 H -3.972895 4.212869 -0.481219 0
M  V30 51 H -3.543385 3.042529 -1.713425 0
M  V30 52 H -1.917833 3.938858 0.693754 0
M  V30 53 H -1.540417 3.796423 -1.005950 0
M  V30 54 H 1.261295 -3.491509 -3.616417 0
M  V30 55 H 0.057733 -4.451554 -2.663838 0
M  V30 56 H 2.903919 -4.387623 -2.367629 0
M  V30 57 H 1.737298 -5.394360 -1.493843 0
M  V30 END ATOM
M  V30 BEGIN BOND
M  V30 1 1 1 2
M  V30 2 1 2 3
M  V30 3 2 3 4
M  V30 4 1 4 5
M  V30 5 2 5 6
M  V30 6 1 6 7
M  V30 7 2 7 8
M  V30 8 1 8 9
M  V30 9 1 9 10
M  V30 10 1 6 11
M  V30 11 2 11 12
M  V30 12 1 12 13
M  V30 13 1 13 14
M  V30 14 1 14 15
M  V30 15 1 15 16
M  V30 16 1 16 17
M  V30 17 1 17 18
M  V30 18 1 18 19
M  V30 19 1 19 20
M  V30 20 1 20 21
M  V30 21 1 21 22
M  V30 22 2 13 23
M  V30 23 1 23 24
M  V30 24 2 24 25
M  V30 25 1 24 26
M  V30 26 1 26 27
M  V30 27 1 27 28
M  V30 28 1 8 3
M  V30 29 1 26 11
M  V30 30 1 28 5
M  V30 31 1 22 15
M  V30 32 1 1 29
M  V30 33 1 1 30
M  V30 34 1 1 31
M  V30 35 1 4 32
M  V30 36 1 7 33
M  V30 37 1 10 34
M  V30 38 1 10 35
M  V30 39 1 10 36
M  V30 40 1 12 37
M  V30 41 1 14 38
M  V30 42 1 15 39
M  V30 43 1 16 40
M  V30 44 1 16 41
M  V30 45 1 17 42
M  V30 46 1 17 43
M  V30 47 1 18 44
M  V30 48 1 18 45
M  V30 49 1 19 46
M  V30 50 1 19 47
M  V30 51 1 20 48
M  V30 52 1 20 49
M  V30 53 1 21 50
M  V30 54 1 21 51
M  V30 55 1 22 52
M  V30 56 1 22 53
M  V30 57 1 27 54
M  V30 58 1 27 55
M  V30 59 1 28 56
M  V30 60 1 28 57
M  V30 END BOND
M  V30 END CTAB
M  END
>  <Dataset>  (820) 
ChEMBL_Kinases

>  <Ligand_Instance>  (820) 
nan

>  <PDB_ID>  (820) 
nan

>  <Standardized_SMILES>  (820) 
COc1cc2c(cc1OC)-c1cc(NC3CCCCCCC3)nc(=O)n1CC2

>  <Name>  (820) 
nan

>  <Pocket>  (820) 
nan

>  <ATP_Site>  (820) 
nan

>  <Peripheral>  (820) 
nan

>  <Num_H_Atoms_ProtBoundConf>  (820) 
nan

>  <Num_Resolved_Atoms>  (820) 
nan

>  <Num_Not_Resolved_Atoms>  (820) 
nan

$$$$
CHEMBL1497930
     RDKit          3D

  0  0  0  0  0  0  0  0  0  0999 V3000
M  V30 BEGIN CTAB
M  V30 COUNTS 33 35 0 0 0
M  V30 BEGIN ATOM
M  V30 1 O 3.708143 -0.666184 4.520402 0
M  V30 2 N 2.792705 -1.032296 3.750799 0 CHG=1 VAL=4
M  V30 3 O 1.479734 -0.744686 4.036647 0 CHG=-1 VAL=1
M  V30 4 C 3.169462 -1.760948 2.566255 0
M  V30 5 C 4.330052 -2.508540 2.564864 0
M  V30 6 C 4.772925 -3.241590 1.475250 0
M  V30 7 C 3.976588 -3.201552 0.326159 0
M  V30 8 C 2.812591 -2.453669 0.322917 0
M  V30 9 C 2.005350 -2.393278 -0.792022 0
M  V30 10 C 0.847702 -1.632639 -0.751872 0
M  V30 11 C 0.439914 -0.919498 0.344070 0
M  V30 12 C -0.776378 -0.114989 0.398956 0
M  V30 13 C -1.637172 0.040127 -0.564408 0
M  V30 14 C -2.869989 0.850593 -0.520897 0
M  V30 15 C -3.226653 1.552184 0.608862 0
M  V30 16 C -4.393657 2.324310 0.665479 0
M  V30 17 C -5.149034 2.325352 -0.489720 0
M  V30 18 F -6.297539 3.072453 -0.464120 0
M  V30 19 C -4.846415 1.645363 -1.650719 0
M  V30 20 C -3.669128 0.892968 -1.644032 0
M  V30 21 N 1.258759 -1.008269 1.407664 0
M  V30 22 C 2.392216 -1.731802 1.420460 0
M  V30 23 H 4.910773 -2.501760 3.491429 0
M  V30 24 H 5.685217 -3.814598 1.508380 0
M  V30 25 H 4.292383 -3.765578 -0.553211 0
M  V30 26 H 2.273826 -2.941885 -1.707312 0
M  V30 27 H 0.265910 -1.628054 -1.648660 0
M  V30 28 H -0.985364 0.403535 1.330338 0
M  V30 29 H -1.394977 -0.491657 -1.476940 0
M  V30 30 H -2.636077 1.548094 1.505382 0
M  V30 31 H -4.681364 2.877461 1.545436 0
M  V30 32 H -5.466000 1.675942 -2.526545 0
M  V30 33 H -3.443525 0.363020 -2.564185 0
M  V30 END ATOM
M  V30 BEGIN BOND
M  V30 1 2 1 2
M  V30 2 1 2 3
M  V30 3 1 2 4
M  V30 4 2 4 5
M  V30 5 1 5 6
M  V30 6 2 6 7
M  V30 7 1 7 8
M  V30 8 2 8 9
M  V30 9 1 9 10
M  V30 10 2 10 11
M  V30 11 1 11 12
M  V30 12 2 12 13
M  V30 13 1 13 14
M  V30 14 2 14 15
M  V30 15 1 15 16
M  V30 16 2 16 17
M  V30 17 1 17 18
M  V30 18 1 17 19
M  V30 19 2 19 20
M  V30 20 1 11 21
M  V30 21 2 21 22
M  V30 22 1 22 4
M  V30 23 1 22 8
M  V30 24 1 20 14
M  V30 25 1 5 23
M  V30 26 1 6 24
M  V30 27 1 7 25
M  V30 28 1 9 26
M  V30 29 1 10 27
M  V30 30 1 12 28
M  V30 31 1 13 29
M  V30 32 1 15 30
M  V30 33 1 16 31
M  V30 34 1 19 32
M  V30 35 1 20 33
M  V30 END BOND
M  V30 END CTAB
M  END
>  <Dataset>  (821) 
ChEMBL_Kinases

>  <Ligand_Instance>  (821) 
nan

>  <PDB_ID>  (821) 
nan

>  <Standardized_SMILES>  (821) 
O=[N+]([O-])c1cccc2ccc(/C=C/c3ccc(F)cc3)nc12

>  <Name>  (821) 
nan

>  <Pocket>  (821) 
nan

>  <ATP_Site>  (821) 
nan

>  <Peripheral>  (821) 
nan

>  <Num_H_Atoms_ProtBoundConf>  (821) 
nan

>  <Num_Resolved_Atoms>  (821) 
nan

>  <Num_Not_Resolved_Atoms>  (821) 
nan

$$$$
CHEMBL1498174
     RDKit          3D

  0  0  0  0  0  0  0  0  0  0999 V3000
M  V30 BEGIN CTAB
M  V30 COUNTS 37 38 0 0 0
M  V30 BEGIN ATOM
M  V30 1 C -2.384235 -4.765172 0.623207 0
M  V30 2 C -2.228120 -4.045820 -0.691786 0
M  V30 3 O -1.199862 -3.071774 -0.682294 0
M  V30 4 C 0.095955 -3.436229 -0.420828 0
M  V30 5 N 0.558226 -4.668730 -0.154769 0
M  V30 6 C 1.843245 -4.950834 0.092084 0
M  V30 7 C 2.801109 -3.971685 0.089689 0
M  V30 8 C 2.342179 -2.689106 -0.183686 0
M  V30 9 C 1.001799 -2.386874 -0.442433 0
M  V30 10 C 0.711734 -0.981485 -0.708492 0
M  V30 11 O 1.589894 -0.065699 -0.713477 0
M  V30 12 O -0.589157 -0.628609 -0.969070 0
M  V30 13 C -0.956129 0.733480 -1.240502 0
M  V30 14 C -0.580077 1.535723 -0.046912 0
M  V30 15 C -1.460530 1.731934 0.998146 0
M  V30 16 C -0.834536 2.509012 1.951594 0
M  V30 17 C 0.431365 2.752923 1.422619 0
M  V30 18 C 1.653678 3.477295 1.816675 0
M  V30 19 O 2.770164 3.643522 1.259663 0
M  V30 20 O 1.543996 4.089848 3.035348 0
M  V30 21 C 2.564515 4.848125 3.648467 0
M  V30 22 O 0.540502 2.157365 0.235791 0
M  V30 23 H -3.169559 -4.290820 1.264141 0
M  V30 24 H -2.732197 -5.784036 0.416829 0
M  V30 25 H -1.420943 -4.833433 1.156506 0
M  V30 26 H -3.189866 -3.631634 -1.052247 0
M  V30 27 H -1.936883 -4.808667 -1.453320 0
M  V30 28 H 2.125390 -5.967862 0.295960 0
M  V30 29 H 3.852282 -4.133076 0.280744 0
M  V30 30 H 3.106007 -1.896689 -0.187432 0
M  V30 31 H -2.002356 0.819962 -1.522879 0
M  V30 32 H -0.318543 1.128059 -2.082675 0
M  V30 33 H -2.491366 1.412716 1.205670 0
M  V30 34 H -1.033395 2.940848 2.904898 0
M  V30 35 H 3.343899 4.249208 4.129338 0
M  V30 36 H 3.072609 5.419354 2.819629 0
M  V30 37 H 2.176855 5.602436 4.348775 0
M  V30 END ATOM
M  V30 BEGIN BOND
M  V30 1 1 1 2
M  V30 2 1 2 3
M  V30 3 1 3 4
M  V30 4 2 4 5
M  V30 5 1 5 6
M  V30 6 2 6 7
M  V30 7 1 7 8
M  V30 8 2 8 9
M  V30 9 1 9 10
M  V30 10 2 10 11
M  V30 11 1 10 12
M  V30 12 1 12 13
M  V30 13 1 13 14
M  V30 14 2 14 15
M  V30 15 1 15 16
M  V30 16 2 16 17
M  V30 17 1 17 18
M  V30 18 2 18 19
M  V30 19 1 18 20
M  V30 20 1 20 21
M  V30 21 1 17 22
M  V30 22 1 9 4
M  V30 23 1 22 14
M  V30 24 1 1 23
M  V30 25 1 1 24
M  V30 26 1 1 25
M  V30 27 1 2 26
M  V30 28 1 2 27
M  V30 29 1 6 28
M  V30 30 1 7 29
M  V30 31 1 8 30
M  V30 32 1 13 31
M  V30 33 1 13 32
M  V30 34 1 15 33
M  V30 35 1 16 34
M  V30 36 1 21 35
M  V30 37 1 21 36
M  V30 38 1 21 37
M  V30 END BOND
M  V30 END CTAB
M  END
>  <Dataset>  (822) 
ChEMBL_Kinases

>  <Ligand_Instance>  (822) 
nan

>  <PDB_ID>  (822) 
nan

>  <Standardized_SMILES>  (822) 
CCOc1ncccc1C(=O)OCc1ccc(C(=O)OC)o1

>  <Name>  (822) 
nan

>  <Pocket>  (822) 
nan

>  <ATP_Site>  (822) 
nan

>  <Peripheral>  (822) 
nan

>  <Num_H_Atoms_ProtBoundConf>  (822) 
nan

>  <Num_Resolved_Atoms>  (822) 
nan

>  <Num_Not_Resolved_Atoms>  (822) 
nan

$$$$
CHEMBL1499872
     RDKit          3D

  0  0  0  0  0  0  0  0  0  0999 V3000
M  V30 BEGIN CTAB
M  V30 COUNTS 51 55 0 0 0
M  V30 BEGIN ATOM
M  V30 1 C 0.366903 -0.931094 0.477380 0
M  V30 2 N -0.126073 -1.916592 1.379234 0
M  V30 3 C 0.801713 -2.669020 1.987826 0
M  V30 4 S 2.543359 -2.938244 2.069510 0
M  V30 5 C 3.387248 -1.974532 3.284921 0
M  V30 6 C 3.439767 -0.550907 2.974807 0
M  V30 7 O 4.233125 -0.356599 1.983263 0
M  V30 8 N 2.918250 0.701993 3.389931 0
M  V30 9 C 3.256906 1.956996 2.777112 0
M  V30 10 C 2.585620 2.238381 1.502662 0
M  V30 11 C 2.986705 1.985383 0.222777 0
M  V30 12 C 2.234168 2.315540 -0.878314 0
M  V30 13 C 1.015278 2.930019 -0.739233 0
M  V30 14 C 0.579324 3.200574 0.531583 0
M  V30 15 C 1.341445 2.865567 1.640289 0
M  V30 16 O -0.659088 3.814608 0.408211 0
M  V30 17 C -0.869840 4.195409 -0.941022 0
M  V30 18 O 0.051802 3.375529 -1.633928 0
M  V30 19 N 0.129630 -3.540890 2.804423 0
M  V30 20 N -1.187686 -3.312296 2.682499 0
M  V30 21 C -1.343548 -2.295392 1.790437 0
M  V30 22 C -2.622819 -1.691791 1.311972 0
M  V30 23 C -3.716651 -2.742796 1.583839 0
M  V30 24 O -3.413653 -3.897425 0.819312 0
M  V30 25 C -3.014756 -3.865466 -0.498316 0
M  V30 26 C -3.012060 -4.986945 -1.298813 0
M  V30 27 C -2.589347 -4.831606 -2.608266 0
M  V30 28 C -2.191048 -3.570808 -3.055299 0
M  V30 29 C -2.201555 -2.440722 -2.221983 0
M  V30 30 C -2.626012 -2.600839 -0.910511 0
M  V30 31 O -2.638551 -1.503608 -0.094981 0
M  V30 32 H -0.517891 -0.532926 -0.084891 0
M  V30 33 H 0.840152 -0.100234 1.082641 0
M  V30 34 H 1.082933 -1.361655 -0.243580 0
M  V30 35 H 4.463020 -2.353079 3.321984 0
M  V30 36 H 3.040154 -2.169927 4.338881 0
M  V30 37 H 2.269784 0.460867 4.209588 0
M  V30 38 H 3.042265 2.759528 3.531999 0
M  V30 39 H 4.364775 2.021107 2.629441 0
M  V30 40 H 3.932693 1.516049 0.086562 0
M  V30 41 H 2.645226 2.069282 -1.868883 0
M  V30 42 H 0.911610 3.121242 2.603459 0
M  V30 43 H -1.888773 3.889700 -1.257138 0
M  V30 44 H -0.673164 5.266141 -1.117782 0
M  V30 45 H -2.836922 -0.759203 1.846164 0
M  V30 46 H -3.785881 -2.956275 2.657052 0
M  V30 47 H -4.661776 -2.312502 1.202839 0
M  V30 48 H -3.326994 -5.951582 -0.926594 0
M  V30 49 H -2.558139 -5.679976 -3.309461 0
M  V30 50 H -1.868736 -3.522174 -4.099676 0
M  V30 51 H -1.885189 -1.493519 -2.619267 0
M  V30 END ATOM
M  V30 BEGIN BOND
M  V30 1 1 1 2
M  V30 2 1 2 3
M  V30 3 1 3 4
M  V30 4 1 4 5
M  V30 5 1 5 6
M  V30 6 2 6 7
M  V30 7 1 6 8
M  V30 8 1 8 9
M  V30 9 1 9 10
M  V30 10 2 10 11
M  V30 11 1 11 12
M  V30 12 2 12 13
M  V30 13 1 13 14
M  V30 14 2 14 15
M  V30 15 1 14 16
M  V30 16 1 16 17
M  V30 17 1 17 18
M  V30 18 2 3 19
M  V30 19 1 19 20
M  V30 20 2 20 21
M  V30 21 1 21 22
M  V30 22 1 22 23
M  V30 23 1 23 24
M  V30 24 1 24 25
M  V30 25 2 25 26
M  V30 26 1 26 27
M  V30 27 2 27 28
M  V30 28 1 28 29
M  V30 29 2 29 30
M  V30 30 1 30 31
M  V30 31 1 21 2
M  V30 32 1 31 22
M  V30 33 1 15 10
M  V30 34 1 30 25
M  V30 35 1 18 13
M  V30 36 1 1 32
M  V30 37 1 1 33
M  V30 38 1 1 34
M  V30 39 1 5 35
M  V30 40 1 5 36
M  V30 41 1 8 37
M  V30 42 1 9 38
M  V30 43 1 9 39
M  V30 44 1 11 40
M  V30 45 1 12 41
M  V30 46 1 15 42
M  V30 47 1 17 43
M  V30 48 1 17 44
M  V30 49 1 22 45
M  V30 50 1 23 46
M  V30 51 1 23 47
M  V30 52 1 26 48
M  V30 53 1 27 49
M  V30 54 1 28 50
M  V30 55 1 29 51
M  V30 END BOND
M  V30 END CTAB
M  END
>  <Dataset>  (823) 
ChEMBL_Kinases

>  <Ligand_Instance>  (823) 
nan

>  <PDB_ID>  (823) 
nan

>  <Standardized_SMILES>  (823) 
Cn1c(SCC(=O)NCc2ccc3c(c2)OCO3)nnc1C1COc2ccccc2O1

>  <Name>  (823) 
nan

>  <Pocket>  (823) 
nan

>  <ATP_Site>  (823) 
nan

>  <Peripheral>  (823) 
nan

>  <Num_H_Atoms_ProtBoundConf>  (823) 
nan

>  <Num_Resolved_Atoms>  (823) 
nan

>  <Num_Not_Resolved_Atoms>  (823) 
nan

$$$$
CHEMBL1498353
     RDKit          3D

  0  0  0  0  0  0  0  0  0  0999 V3000
M  V30 BEGIN CTAB
M  V30 COUNTS 49 52 0 0 0
M  V30 BEGIN ATOM
M  V30 1 C 1.969937 -4.146933 2.146141 0
M  V30 2 C 2.509479 -2.875806 1.603742 0
M  V30 3 C 3.328266 -1.994936 2.298522 0
M  V30 4 C 3.793808 -0.831055 1.732953 0
M  V30 5 C 3.454623 -0.492744 0.426389 0
M  V30 6 C 2.628858 -1.391073 -0.259817 0
M  V30 7 C 2.175611 -1.248161 -1.557666 0
M  V30 8 N 2.341661 -0.282621 -2.556523 0
M  V30 9 N 1.871332 0.873237 -2.602548 0
M  V30 10 C 1.044553 1.363967 -1.544558 0
M  V30 11 C 1.447046 2.130944 -0.469879 0
M  V30 12 C 0.514399 2.525728 0.472553 0
M  V30 13 C -0.832601 2.163686 0.360355 0
M  V30 14 S -1.973954 2.684630 1.572911 0
M  V30 15 O -1.462016 3.981320 2.185375 0
M  V30 16 O -3.308624 3.034867 0.958395 0
M  V30 17 N -2.135912 1.577982 2.874963 0
M  V30 18 C -2.588235 0.232220 2.790376 0
M  V30 19 C -3.708112 0.003926 2.017442 0
M  V30 20 C -4.277123 -1.241084 1.829959 0
M  V30 21 C -3.668917 -2.324333 2.469240 0
M  V30 22 C -2.541883 -2.105385 3.249070 0
M  V30 23 Cl -1.767358 -3.443120 4.055594 0
M  V30 24 C -1.986848 -0.854827 3.425374 0
M  V30 25 C -1.215108 1.391918 -0.728752 0
M  V30 26 C -0.286779 0.995995 -1.671470 0
M  V30 27 N -0.798125 0.203878 -2.748754 0 CHG=1 VAL=4
M  V30 28 O -0.214273 0.350945 -3.837159 0
M  V30 29 O -1.871170 -0.644696 -2.518626 0 CHG=-1 VAL=1
M  V30 30 C 1.401723 -2.395895 -1.757658 0
M  V30 31 O 0.677689 -2.817535 -2.889431 0
M  V30 32 N 1.402422 -3.158622 -0.651136 0
M  V30 33 C 2.160935 -2.560621 0.308169 0
M  V30 34 H 0.909918 -4.056066 2.480023 0
M  V30 35 H 1.996968 -4.917472 1.351068 0
M  V30 36 H 2.570765 -4.470659 3.034285 0
M  V30 37 H 3.569906 -2.293275 3.312429 0
M  V30 38 H 4.435511 -0.156490 2.300494 0
M  V30 39 H 3.817310 0.418680 -0.021349 0
M  V30 40 H 2.491751 2.374417 -0.442014 0
M  V30 41 H 0.852228 3.129860 1.311999 0
M  V30 42 H -1.914302 1.778630 3.894965 0
M  V30 43 H -4.232519 0.789668 1.493159 0
M  V30 44 H -5.155719 -1.414020 1.222426 0
M  V30 45 H -4.084507 -3.328922 2.349625 0
M  V30 46 H -1.129706 -0.610223 4.004242 0
M  V30 47 H -2.270967 1.137813 -0.769856 0
M  V30 48 H -0.280687 -3.132080 -2.785442 0
M  V30 49 H 0.931644 -4.063107 -0.474003 0
M  V30 END ATOM
M  V30 BEGIN BOND
M  V30 1 1 1 2
M  V30 2 2 2 3
M  V30 3 1 3 4
M  V30 4 2 4 5
M  V30 5 1 5 6
M  V30 6 1 6 7
M  V30 7 1 7 8
M  V30 8 2 8 9 CFG=2
M  V30 9 1 9 10
M  V30 10 2 10 11
M  V30 11 1 11 12
M  V30 12 2 12 13
M  V30 13 1 13 14
M  V30 14 2 14 15
M  V30 15 2 14 16
M  V30 16 1 14 17
M  V30 17 1 17 18
M  V30 18 2 18 19
M  V30 19 1 19 20
M  V30 20 2 20 21
M  V30 21 1 21 22
M  V30 22 1 22 23
M  V30 23 2 22 24
M  V30 24 1 13 25
M  V30 25 2 25 26
M  V30 26 1 26 27
M  V30 27 2 27 28
M  V30 28 1 27 29
M  V30 29 2 7 30
M  V30 30 1 30 31
M  V30 31 1 30 32
M  V30 32 1 32 33
M  V30 33 1 33 2
M  V30 34 2 33 6
M  V30 35 1 26 10
M  V30 36 1 24 18
M  V30 37 1 1 34
M  V30 38 1 1 35
M  V30 39 1 1 36
M  V30 40 1 3 37
M  V30 41 1 4 38
M  V30 42 1 5 39
M  V30 43 1 11 40
M  V30 44 1 12 41
M  V30 45 1 17 42
M  V30 46 1 19 43
M  V30 47 1 20 44
M  V30 48 1 21 45
M  V30 49 1 24 46
M  V30 50 1 25 47
M  V30 51 1 31 48
M  V30 52 1 32 49
M  V30 END BOND
M  V30 END CTAB
M  END
>  <Dataset>  (824) 
ChEMBL_Kinases

>  <Ligand_Instance>  (824) 
nan

>  <PDB_ID>  (824) 
nan

>  <Standardized_SMILES>  (824) 
Cc1cccc2c(N=Nc3ccc(S(=O)(=O)Nc4cccc(Cl)c4)cc3[N+](=O)[O-])c(O)[nH]c12

>  <Name>  (824) 
nan

>  <Pocket>  (824) 
nan

>  <ATP_Site>  (824) 
nan

>  <Peripheral>  (824) 
nan

>  <Num_H_Atoms_ProtBoundConf>  (824) 
nan

>  <Num_Resolved_Atoms>  (824) 
nan

>  <Num_Not_Resolved_Atoms>  (824) 
nan

$$$$
CHEMBL1498409
     RDKit          3D

  0  0  0  0  0  0  0  0  0  0999 V3000
M  V30 BEGIN CTAB
M  V30 COUNTS 38 40 0 0 0
M  V30 BEGIN ATOM
M  V30 1 C -2.683238 -4.607182 2.222373 0
M  V30 2 C -1.179504 -4.743452 2.332141 0
M  V30 3 C -0.596540 -3.370001 2.356067 0
M  V30 4 C 0.040414 -2.780076 1.263281 0
M  V30 5 C 0.540627 -1.492400 1.413944 0
M  V30 6 C 1.172345 -0.898656 0.339962 0
M  V30 7 O 1.264690 -1.551915 -0.721402 0
M  V30 8 C 1.705701 0.375153 0.378033 0
M  V30 9 O 2.346705 1.008827 -0.675210 0
M  V30 10 C 1.647127 1.773731 -1.602128 0
M  V30 11 C 1.203303 1.051983 -2.714938 0
M  V30 12 C 0.490199 1.695586 -3.717775 0
M  V30 13 C 0.194750 3.058654 -3.655664 0
M  V30 14 C 0.642505 3.730228 -2.558066 0
M  V30 15 C 1.345070 3.121339 -1.559427 0
M  V30 16 C 1.524463 0.975697 1.629214 0
M  V30 17 C 2.029312 2.347891 1.871923 0
M  V30 18 O 0.922749 0.404050 2.644395 0
M  V30 19 C 0.416131 -0.807192 2.606560 0
M  V30 20 C -0.210261 -1.373938 3.697747 0
M  V30 21 C -0.702822 -2.655343 3.533313 0
M  V30 22 O -1.328071 -3.190764 4.660680 0
M  V30 23 H -3.073690 -4.963673 1.256934 0
M  V30 24 H -3.040757 -3.581974 2.402273 0
M  V30 25 H -3.152588 -5.253004 2.996394 0
M  V30 26 H -0.867859 -5.230224 3.271587 0
M  V30 27 H -0.833669 -5.253921 1.412911 0
M  V30 28 H 0.107831 -3.359066 0.363583 0
M  V30 29 H 1.322810 0.012692 -2.957516 0
M  V30 30 H 0.102822 1.215574 -4.624400 0
M  V30 31 H -0.361471 3.579065 -4.429029 0
M  V30 32 H 0.434531 4.803989 -2.463316 0
M  V30 33 H 1.708732 3.632841 -0.686627 0
M  V30 34 H 2.551918 2.304800 2.871916 0
M  V30 35 H 2.845472 2.583323 1.149809 0
M  V30 36 H 1.263374 3.114450 1.967898 0
M  V30 37 H -0.299237 -0.824076 4.625003 0
M  V30 38 H -2.019158 -2.674150 5.179737 0
M  V30 END ATOM
M  V30 BEGIN BOND
M  V30 1 1 1 2
M  V30 2 1 2 3
M  V30 3 2 3 4
M  V30 4 1 4 5
M  V30 5 1 5 6
M  V30 6 2 6 7
M  V30 7 1 6 8
M  V30 8 1 8 9
M  V30 9 1 9 10
M  V30 10 2 10 11
M  V30 11 1 11 12
M  V30 12 2 12 13
M  V30 13 1 13 14
M  V30 14 2 14 15
M  V30 15 2 8 16
M  V30 16 1 16 17
M  V30 17 1 16 18
M  V30 18 1 18 19
M  V30 19 1 19 20
M  V30 20 2 20 21
M  V30 21 1 21 22
M  V30 22 1 21 3
M  V30 23 2 19 5
M  V30 24 1 15 10
M  V30 25 1 1 23
M  V30 26 1 1 24
M  V30 27 1 1 25
M  V30 28 1 2 26
M  V30 29 1 2 27
M  V30 30 1 4 28
M  V30 31 1 11 29
M  V30 32 1 12 30
M  V30 33 1 13 31
M  V30 34 1 14 32
M  V30 35 1 15 33
M  V30 36 1 17 34
M  V30 37 1 17 35
M  V30 38 1 17 36
M  V30 39 1 20 37
M  V30 40 1 22 38
M  V30 END BOND
M  V30 END CTAB
M  END
>  <Dataset>  (825) 
ChEMBL_Kinases

>  <Ligand_Instance>  (825) 
nan

>  <PDB_ID>  (825) 
nan

>  <Standardized_SMILES>  (825) 
CCc1cc2c(=O)c(Oc3ccccc3)c(C)oc2cc1O

>  <Name>  (825) 
nan

>  <Pocket>  (825) 
nan

>  <ATP_Site>  (825) 
nan

>  <Peripheral>  (825) 
nan

>  <Num_H_Atoms_ProtBoundConf>  (825) 
nan

>  <Num_Resolved_Atoms>  (825) 
nan

>  <Num_Not_Resolved_Atoms>  (825) 
nan

$$$$
CHEMBL1498885
     RDKit          3D

  0  0  0  0  0  0  0  0  0  0999 V3000
M  V30 BEGIN CTAB
M  V30 COUNTS 44 46 0 0 0
M  V30 BEGIN ATOM
M  V30 1 C 0.421895 -5.857232 1.146979 0
M  V30 2 O -0.428729 -5.011994 1.854497 0
M  V30 3 C -0.692260 -3.689012 1.612881 0
M  V30 4 C -0.164365 -2.888577 0.599213 0
M  V30 5 C -0.547067 -1.567435 0.507185 0
M  V30 6 C 0.044612 -0.787291 -0.570382 0
M  V30 7 O 0.910620 -1.345671 -1.299679 0
M  V30 8 N -0.279442 0.561482 -0.868523 0
M  V30 9 C 0.276480 1.379886 -1.919801 0
M  V30 10 C 1.641267 1.867097 -1.547518 0
M  V30 11 C 1.747250 3.075931 -0.850453 0
M  V30 12 N 3.049602 3.364891 -0.598209 0
M  V30 13 C 3.640321 4.400388 0.031944 0
M  V30 14 C 4.994291 4.501290 0.179317 0
M  V30 15 C 5.742050 3.459171 -0.365446 0
M  V30 16 C 5.113534 2.411718 -1.004712 0
M  V30 17 C 3.742920 2.339634 -1.137396 0
M  V30 18 N 2.903296 1.447970 -1.702675 0
M  V30 19 C -1.444373 -1.037943 1.408339 0
M  V30 20 C -1.979927 -1.809874 2.420169 0
M  V30 21 O -2.867942 -1.238316 3.292420 0
M  V30 22 C -3.292002 0.091538 3.255015 0
M  V30 23 C -1.601301 -3.128775 2.516259 0
M  V30 24 O -2.190841 -3.843842 3.571379 0
M  V30 25 C -3.416505 -4.491407 3.266972 0
M  V30 26 H 1.389921 -6.078180 1.647396 0
M  V30 27 H 0.629230 -5.402263 0.156773 0
M  V30 28 H -0.080660 -6.836922 0.890187 0
M  V30 29 H 0.532714 -3.383992 -0.062931 0
M  V30 30 H -1.002585 0.985897 -0.243313 0
M  V30 31 H 0.440946 0.782109 -2.857805 0
M  V30 32 H -0.405528 2.199315 -2.137057 0
M  V30 33 H 0.956213 3.750597 -0.517867 0
M  V30 34 H 3.046194 5.212928 0.455928 0
M  V30 35 H 5.428004 5.351938 0.695000 0
M  V30 36 H 6.816040 3.522531 -0.257462 0
M  V30 37 H 5.686675 1.597567 -1.433348 0
M  V30 38 H -1.750711 -0.007376 1.346529 0
M  V30 39 H -4.110450 0.208879 4.019312 0
M  V30 40 H -3.729094 0.389948 2.279677 0
M  V30 41 H -2.495981 0.821521 3.524503 0
M  V30 42 H -4.271942 -3.777710 3.386746 0
M  V30 43 H -3.617668 -5.349549 3.967855 0
M  V30 44 H -3.386818 -4.861688 2.219687 0
M  V30 END ATOM
M  V30 BEGIN BOND
M  V30 1 1 1 2
M  V30 2 1 2 3
M  V30 3 2 3 4
M  V30 4 1 4 5
M  V30 5 1 5 6
M  V30 6 2 6 7
M  V30 7 1 6 8
M  V30 8 1 8 9
M  V30 9 1 9 10
M  V30 10 2 10 11
M  V30 11 1 11 12
M  V30 12 1 12 13
M  V30 13 2 13 14
M  V30 14 1 14 15
M  V30 15 2 15 16
M  V30 16 1 16 17
M  V30 17 2 17 18
M  V30 18 2 5 19
M  V30 19 1 19 20
M  V30 20 1 20 21
M  V30 21 1 21 22
M  V30 22 2 20 23
M  V30 23 1 23 24
M  V30 24 1 24 25
M  V30 25 1 23 3
M  V30 26 1 18 10
M  V30 27 1 17 12
M  V30 28 1 1 26
M  V30 29 1 1 27
M  V30 30 1 1 28
M  V30 31 1 4 29
M  V30 32 1 8 30
M  V30 33 1 9 31
M  V30 34 1 9 32
M  V30 35 1 11 33
M  V30 36 1 13 34
M  V30 37 1 14 35
M  V30 38 1 15 36
M  V30 39 1 16 37
M  V30 40 1 19 38
M  V30 41 1 22 39
M  V30 42 1 22 40
M  V30 43 1 22 41
M  V30 44 1 25 42
M  V30 45 1 25 43
M  V30 46 1 25 44
M  V30 END BOND
M  V30 END CTAB
M  END
>  <Dataset>  (826) 
ChEMBL_Kinases

>  <Ligand_Instance>  (826) 
nan

>  <PDB_ID>  (826) 
nan

>  <Standardized_SMILES>  (826) 
COc1cc(C(=O)NCc2cn3ccccc3n2)cc(OC)c1OC

>  <Name>  (826) 
nan

>  <Pocket>  (826) 
nan

>  <ATP_Site>  (826) 
nan

>  <Peripheral>  (826) 
nan

>  <Num_H_Atoms_ProtBoundConf>  (826) 
nan

>  <Num_Resolved_Atoms>  (826) 
nan

>  <Num_Not_Resolved_Atoms>  (826) 
nan

$$$$
CHEMBL1498994
     RDKit          3D

  0  0  0  0  0  0  0  0  0  0999 V3000
M  V30 BEGIN CTAB
M  V30 COUNTS 25 26 0 0 0
M  V30 BEGIN ATOM
M  V30 1 C 1.482848 -2.416257 3.460267 0
M  V30 2 O 0.591228 -1.424584 2.986111 0
M  V30 3 C 0.830931 -0.883918 1.723235 0
M  V30 4 C 1.929302 -1.354546 1.013849 0
M  V30 5 C 2.232176 -0.867373 -0.244308 0
M  V30 6 C 1.409315 0.103525 -0.777758 0
M  V30 7 C 1.600128 0.671977 -2.020730 0
M  V30 8 N 0.744634 1.629028 -2.485087 0
M  V30 9 N -0.286555 2.055374 -1.792387 0
M  V30 10 C -0.533511 1.539048 -0.561491 0
M  V30 11 O -1.632264 2.015682 0.138122 0
M  V30 12 C 0.318373 0.570157 -0.071760 0
M  V30 13 C 0.005809 0.089308 1.188901 0
M  V30 14 O -1.049290 0.478634 1.978464 0
M  V30 15 C -2.333384 -0.107921 1.972867 0
M  V30 16 H 1.427755 -3.351579 2.880804 0
M  V30 17 H 1.250931 -2.585335 4.541463 0
M  V30 18 H 2.543967 -2.092784 3.445568 0
M  V30 19 H 2.584525 -2.106563 1.402278 0
M  V30 20 H 3.086177 -1.212992 -0.830852 0
M  V30 21 H 2.456431 0.334352 -2.624225 0
M  V30 22 H -2.476871 2.221036 -0.406008 0
M  V30 23 H -2.609437 -0.428055 0.943052 0
M  V30 24 H -3.068329 0.662278 2.274531 0
M  V30 25 H -2.419440 -0.943127 2.695054 0
M  V30 END ATOM
M  V30 BEGIN BOND
M  V30 1 1 1 2
M  V30 2 1 2 3
M  V30 3 2 3 4
M  V30 4 1 4 5
M  V30 5 2 5 6
M  V30 6 1 6 7
M  V30 7 2 7 8
M  V30 8 1 8 9
M  V30 9 2 9 10
M  V30 10 1 10 11
M  V30 11 1 10 12
M  V30 12 2 12 13
M  V30 13 1 13 14
M  V30 14 1 14 15
M  V30 15 1 13 3
M  V30 16 1 12 6
M  V30 17 1 1 16
M  V30 18 1 1 17
M  V30 19 1 1 18
M  V30 20 1 4 19
M  V30 21 1 5 20
M  V30 22 1 7 21
M  V30 23 1 11 22
M  V30 24 1 15 23
M  V30 25 1 15 24
M  V30 26 1 15 25
M  V30 END BOND
M  V30 END CTAB
M  END
>  <Dataset>  (827) 
ChEMBL_Kinases

>  <Ligand_Instance>  (827) 
nan

>  <PDB_ID>  (827) 
nan

>  <Standardized_SMILES>  (827) 
COc1ccc2cnnc(O)c2c1OC

>  <Name>  (827) 
nan

>  <Pocket>  (827) 
nan

>  <ATP_Site>  (827) 
nan

>  <Peripheral>  (827) 
nan

>  <Num_H_Atoms_ProtBoundConf>  (827) 
nan

>  <Num_Resolved_Atoms>  (827) 
nan

>  <Num_Not_Resolved_Atoms>  (827) 
nan

$$$$
CHEMBL1499046
     RDKit          3D

  0  0  0  0  0  0  0  0  0  0999 V3000
M  V30 BEGIN CTAB
M  V30 COUNTS 46 48 0 0 0
M  V30 BEGIN ATOM
M  V30 1 C -0.096080 -6.424431 3.582164 0
M  V30 2 C 0.022679 -5.110949 2.837220 0
M  V30 3 O -0.510563 -5.386530 1.542312 0
M  V30 4 C -0.607674 -4.459895 0.559206 0
M  V30 5 O -0.095652 -3.601182 1.355921 0
M  V30 6 C -0.934723 -3.939956 -0.764683 0
M  V30 7 C -0.593247 -2.495827 -0.902144 0
M  V30 8 N 0.437617 -2.012007 -1.578639 0
M  V30 9 N 0.721142 -0.735853 -1.676678 0
M  V30 10 C 0.036417 0.258955 -1.126567 0
M  V30 11 N 0.181279 1.680068 -1.114243 0
M  V30 12 C 1.152630 2.290263 -0.235253 0
M  V30 13 C 0.802613 3.162858 0.787175 0
M  V30 14 C 1.680152 3.772793 1.643312 0
M  V30 15 C 1.303633 4.693234 2.724216 0
M  V30 16 C 3.023020 3.487651 1.463019 0
M  V30 17 C 3.416333 2.642984 0.478036 0
M  V30 18 C 2.515914 2.020228 -0.396449 0
M  V30 19 C 3.064804 1.142934 -1.440916 0
M  V30 20 C -1.070842 -0.186183 -0.396399 0
M  V30 21 C -1.938909 0.680341 0.259970 0
M  V30 22 C -3.036699 0.263098 0.977627 0
M  V30 23 C -3.303967 -1.084521 1.059702 0
M  V30 24 C -2.481898 -2.006398 0.430700 0
M  V30 25 C -1.385345 -1.543423 -0.282844 0
M  V30 26 H -0.846164 -7.110247 3.088709 0
M  V30 27 H 0.874361 -6.946661 3.522437 0
M  V30 28 H -0.454381 -6.271600 4.621662 0
M  V30 29 H -0.559363 -4.342672 3.387582 0
M  V30 30 H 1.092220 -4.789563 2.781781 0
M  V30 31 H -1.973383 -4.068028 -1.097773 0
M  V30 32 H -0.243919 -4.467330 -1.491693 0
M  V30 33 H -0.458853 2.198180 -1.773385 0
M  V30 34 H -0.239671 3.407468 0.953184 0
M  V30 35 H 0.922781 5.668745 2.330107 0
M  V30 36 H 2.174844 4.875338 3.396823 0
M  V30 37 H 0.446971 4.252719 3.301280 0
M  V30 38 H 3.769877 3.941436 2.111772 0
M  V30 39 H 4.466220 2.435961 0.362119 0
M  V30 40 H 3.288656 0.116411 -1.090056 0
M  V30 41 H 2.531843 1.195595 -2.413972 0
M  V30 42 H 4.094816 1.556893 -1.695297 0
M  V30 43 H -1.760529 1.737050 0.213091 0
M  V30 44 H -3.686174 0.995019 1.477301 0
M  V30 45 H -4.150425 -1.480201 1.610586 0
M  V30 46 H -2.704064 -3.059231 0.505879 0
M  V30 END ATOM
M  V30 BEGIN BOND
M  V30 1 1 1 2
M  V30 2 1 2 3
M  V30 3 1 3 4
M  V30 4 2 4 5
M  V30 5 1 4 6
M  V30 6 1 6 7
M  V30 7 2 7 8
M  V30 8 1 8 9
M  V30 9 2 9 10
M  V30 10 1 10 11
M  V30 11 1 11 12
M  V30 12 2 12 13
M  V30 13 1 13 14
M  V30 14 1 14 15
M  V30 15 2 14 16
M  V30 16 1 16 17
M  V30 17 2 17 18
M  V30 18 1 18 19
M  V30 19 1 10 20
M  V30 20 2 20 21
M  V30 21 1 21 22
M  V30 22 2 22 23
M  V30 23 1 23 24
M  V30 24 2 24 25
M  V30 25 1 25 7
M  V30 26 1 18 12
M  V30 27 1 25 20
M  V30 28 1 1 26
M  V30 29 1 1 27
M  V30 30 1 1 28
M  V30 31 1 2 29
M  V30 32 1 2 30
M  V30 33 1 6 31
M  V30 34 1 6 32
M  V30 35 1 11 33
M  V30 36 1 13 34
M  V30 37 1 15 35
M  V30 38 1 15 36
M  V30 39 1 15 37
M  V30 40 1 16 38
M  V30 41 1 17 39
M  V30 42 1 19 40
M  V30 43 1 19 41
M  V30 44 1 19 42
M  V30 45 1 21 43
M  V30 46 1 22 44
M  V30 47 1 23 45
M  V30 48 1 24 46
M  V30 END BOND
M  V30 END CTAB
M  END
>  <Dataset>  (828) 
ChEMBL_Kinases

>  <Ligand_Instance>  (828) 
nan

>  <PDB_ID>  (828) 
nan

>  <Standardized_SMILES>  (828) 
CCOC(=O)Cc1nnc(Nc2cc(C)ccc2C)c2ccccc12

>  <Name>  (828) 
nan

>  <Pocket>  (828) 
nan

>  <ATP_Site>  (828) 
nan

>  <Peripheral>  (828) 
nan

>  <Num_H_Atoms_ProtBoundConf>  (828) 
nan

>  <Num_Resolved_Atoms>  (828) 
nan

>  <Num_Not_Resolved_Atoms>  (828) 
nan

$$$$
CHEMBL1499261
     RDKit          3D

  0  0  0  0  0  0  0  0  0  0999 V3000
M  V30 BEGIN CTAB
M  V30 COUNTS 46 49 0 0 0
M  V30 BEGIN ATOM
M  V30 1 N 0.596690 2.752885 3.581394 0
M  V30 2 C 0.932775 2.102839 2.686832 0
M  V30 3 C 1.349574 1.326574 1.578164 0
M  V30 4 N 2.546728 1.544349 0.958408 0
M  V30 5 C 2.662894 0.669285 -0.041373 0
M  V30 6 C 3.762050 0.467708 -1.031388 0
M  V30 7 C 3.559331 1.292026 -2.251133 0
M  V30 8 C 2.856639 0.824950 -3.343944 0
M  V30 9 C 2.689745 1.630735 -4.468175 0
M  V30 10 C 3.221805 2.899684 -4.504061 0
M  V30 11 C 3.922392 3.352658 -3.402542 0
M  V30 12 C 4.104583 2.576902 -2.273249 0
M  V30 13 O 1.587283 -0.056401 -0.040241 0
M  V30 14 C 0.745252 0.282945 0.912076 0
M  V30 15 N -0.528827 -0.252408 1.253461 0
M  V30 16 C -1.226944 0.342453 2.375709 0
M  V30 17 C -2.541991 -0.341241 2.662489 0
M  V30 18 N -2.438164 -1.708361 2.201654 0
M  V30 19 C -2.397034 -2.837798 3.060236 0
M  V30 20 C -2.449425 -2.709767 4.428206 0
M  V30 21 C -2.412767 -3.773116 5.305282 0
M  V30 22 C -2.318277 -5.056176 4.820671 0
M  V30 23 C -2.264487 -5.205028 3.450845 0
M  V30 24 Cl -2.144117 -6.839915 2.834909 0
M  V30 25 C -2.303594 -4.117713 2.603959 0
M  V30 26 C -2.376611 -1.802630 0.753966 0
M  V30 27 C -0.962011 -1.348134 0.407127 0
M  V30 28 H 3.821770 -0.604427 -1.347669 0
M  V30 29 H 4.709462 0.734248 -0.518204 0
M  V30 30 H 2.467975 -0.168940 -3.254599 0
M  V30 31 H 2.119382 1.187508 -5.294749 0
M  V30 32 H 3.086887 3.511354 -5.375438 0
M  V30 33 H 4.341708 4.352002 -3.430169 0
M  V30 34 H 4.650261 2.961803 -1.445578 0
M  V30 35 H -0.611883 0.265919 3.292533 0
M  V30 36 H -1.398304 1.417264 2.176261 0
M  V30 37 H -3.330823 0.152808 2.023335 0
M  V30 38 H -2.885562 -0.212435 3.686650 0
M  V30 39 H -2.523201 -1.756480 4.925669 0
M  V30 40 H -2.454632 -3.662073 6.381140 0
M  V30 41 H -2.289256 -5.891765 5.502824 0
M  V30 42 H -2.254503 -4.355971 1.569211 0
M  V30 43 H -2.581297 -2.790383 0.347306 0
M  V30 44 H -3.031625 -1.024001 0.262690 0
M  V30 45 H -0.226631 -2.165447 0.526711 0
M  V30 46 H -0.894923 -1.014759 -0.659306 0
M  V30 END ATOM
M  V30 BEGIN BOND
M  V30 1 3 1 2
M  V30 2 1 2 3
M  V30 3 1 3 4
M  V30 4 2 4 5
M  V30 5 1 5 6
M  V30 6 1 6 7
M  V30 7 2 7 8
M  V30 8 1 8 9
M  V30 9 2 9 10
M  V30 10 1 10 11
M  V30 11 2 11 12
M  V30 12 1 5 13
M  V30 13 1 13 14
M  V30 14 1 14 15
M  V30 15 1 15 16
M  V30 16 1 16 17
M  V30 17 1 17 18
M  V30 18 1 18 19
M  V30 19 2 19 20
M  V30 20 1 20 21
M  V30 21 2 21 22
M  V30 22 1 22 23
M  V30 23 1 23 24
M  V30 24 2 23 25
M  V30 25 1 18 26
M  V30 26 1 26 27
M  V30 27 2 14 3
M  V30 28 1 27 15
M  V30 29 1 12 7
M  V30 30 1 25 19
M  V30 31 1 6 28
M  V30 32 1 6 29
M  V30 33 1 8 30
M  V30 34 1 9 31
M  V30 35 1 10 32
M  V30 36 1 11 33
M  V30 37 1 12 34
M  V30 38 1 16 35
M  V30 39 1 16 36
M  V30 40 1 17 37
M  V30 41 1 17 38
M  V30 42 1 20 39
M  V30 43 1 21 40
M  V30 44 1 22 41
M  V30 45 1 25 42
M  V30 46 1 26 43
M  V30 47 1 26 44
M  V30 48 1 27 45
M  V30 49 1 27 46
M  V30 END BOND
M  V30 END CTAB
M  END
>  <Dataset>  (829) 
ChEMBL_Kinases

>  <Ligand_Instance>  (829) 
nan

>  <PDB_ID>  (829) 
nan

>  <Standardized_SMILES>  (829) 
N#Cc1nc(Cc2ccccc2)oc1N1CCN(c2cccc(Cl)c2)CC1

>  <Name>  (829) 
nan

>  <Pocket>  (829) 
nan

>  <ATP_Site>  (829) 
nan

>  <Peripheral>  (829) 
nan

>  <Num_H_Atoms_ProtBoundConf>  (829) 
nan

>  <Num_Resolved_Atoms>  (829) 
nan

>  <Num_Not_Resolved_Atoms>  (829) 
nan

$$$$
CHEMBL1499329
     RDKit          3D

  0  0  0  0  0  0  0  0  0  0999 V3000
M  V30 BEGIN CTAB
M  V30 COUNTS 49 51 0 0 0
M  V30 BEGIN ATOM
M  V30 1 C 1.961335 1.725606 5.464816 0
M  V30 2 C 3.223893 1.575974 4.642377 0
M  V30 3 O 2.967402 1.076241 3.366129 0
M  V30 4 C 3.916497 0.839250 2.408595 0
M  V30 5 O 4.820891 1.232274 3.180968 0
M  V30 6 C 3.904556 0.339405 1.051722 0
M  V30 7 C 5.187671 0.309045 0.546316 0
M  V30 8 C 5.458170 -0.130728 -0.740101 0
M  V30 9 C 4.394927 -0.546298 -1.521175 0
M  V30 10 C 3.131353 -0.501181 -0.982006 0
M  V30 11 C 2.838740 -0.070768 0.286193 0
M  V30 12 N 1.563879 -0.002184 0.892776 0
M  V30 13 C 0.301736 -0.353270 0.353669 0
M  V30 14 O 0.245733 -0.793121 -0.824012 0
M  V30 15 C -0.998792 -0.244752 1.077056 0
M  V30 16 N -2.034377 -0.712331 0.185100 0
M  V30 17 C -2.602512 0.329090 -0.644512 0
M  V30 18 O -2.344407 1.501155 -0.207161 0
M  V30 19 C -3.418245 0.269174 -1.892913 0
M  V30 20 C -4.798382 -0.228139 -1.656863 0
M  V30 21 S -4.977874 -1.896452 -1.217308 0
M  V30 22 O -5.322982 -2.778894 -2.404487 0
M  V30 23 O -6.152977 -2.058743 -0.268647 0
M  V30 24 C -3.614236 -2.618855 -0.414889 0
M  V30 25 C -3.789691 -3.985158 -0.340580 0
M  V30 26 C -2.799430 -4.759902 0.274304 0
M  V30 27 C -1.638571 -4.197935 0.815924 0
M  V30 28 C -1.507772 -2.838455 0.718930 0
M  V30 29 C -2.472157 -2.062318 0.117482 0
M  V30 30 H 1.487551 2.714548 5.373052 0
M  V30 31 H 1.237176 0.960631 5.100802 0
M  V30 32 H 2.174031 1.486697 6.525230 0
M  V30 33 H 3.978925 0.952108 5.156968 0
M  V30 34 H 3.660015 2.592074 4.506447 0
M  V30 35 H 6.093417 0.603935 1.050632 0
M  V30 36 H 6.456862 -0.174167 -1.187422 0
M  V30 37 H 4.564115 -0.897510 -2.533073 0
M  V30 38 H 2.351696 -0.828734 -1.616959 0
M  V30 39 H 1.425920 0.338501 1.864922 0
M  V30 40 H -1.211538 0.842119 1.265856 0
M  V30 41 H -0.867756 -0.795576 2.007212 0
M  V30 42 H -2.913868 -0.386196 -2.633061 0
M  V30 43 H -3.462756 1.274462 -2.318181 0
M  V30 44 H -5.346551 -0.082387 -2.632846 0
M  V30 45 H -5.347676 0.456107 -0.956607 0
M  V30 46 H -4.674304 -4.447794 -0.749174 0
M  V30 47 H -2.943291 -5.840220 0.330390 0
M  V30 48 H -0.910565 -4.849221 1.277977 0
M  V30 49 H -0.602876 -2.444558 1.145732 0
M  V30 END ATOM
M  V30 BEGIN BOND
M  V30 1 1 1 2
M  V30 2 1 2 3
M  V30 3 1 3 4
M  V30 4 2 4 5
M  V30 5 1 4 6
M  V30 6 2 6 7
M  V30 7 1 7 8
M  V30 8 2 8 9
M  V30 9 1 9 10
M  V30 10 2 10 11
M  V30 11 1 11 12
M  V30 12 1 12 13
M  V30 13 2 13 14
M  V30 14 1 13 15
M  V30 15 1 15 16
M  V30 16 1 16 17
M  V30 17 2 17 18
M  V30 18 1 17 19
M  V30 19 1 19 20
M  V30 20 1 20 21
M  V30 21 2 21 22
M  V30 22 2 21 23
M  V30 23 1 21 24
M  V30 24 2 24 25
M  V30 25 1 25 26
M  V30 26 2 26 27
M  V30 27 1 27 28
M  V30 28 2 28 29
M  V30 29 1 11 6
M  V30 30 1 29 16
M  V30 31 1 29 24
M  V30 32 1 1 30
M  V30 33 1 1 31
M  V30 34 1 1 32
M  V30 35 1 2 33
M  V30 36 1 2 34
M  V30 37 1 7 35
M  V30 38 1 8 36
M  V30 39 1 9 37
M  V30 40 1 10 38
M  V30 41 1 12 39
M  V30 42 1 15 40
M  V30 43 1 15 41
M  V30 44 1 19 42
M  V30 45 1 19 43
M  V30 46 1 20 44
M  V30 47 1 20 45
M  V30 48 1 25 46
M  V30 49 1 26 47
M  V30 50 1 27 48
M  V30 51 1 28 49
M  V30 END BOND
M  V30 END CTAB
M  END
>  <Dataset>  (830) 
ChEMBL_Kinases

>  <Ligand_Instance>  (830) 
nan

>  <PDB_ID>  (830) 
nan

>  <Standardized_SMILES>  (830) 
CCOC(=O)c1ccccc1NC(=O)CN1C(=O)CCS(=O)(=O)c2ccccc21

>  <Name>  (830) 
nan

>  <Pocket>  (830) 
nan

>  <ATP_Site>  (830) 
nan

>  <Peripheral>  (830) 
nan

>  <Num_H_Atoms_ProtBoundConf>  (830) 
nan

>  <Num_Resolved_Atoms>  (830) 
nan

>  <Num_Not_Resolved_Atoms>  (830) 
nan

$$$$
CHEMBL1499433
     RDKit          3D

  0  0  0  0  0  0  0  0  0  0999 V3000
M  V30 BEGIN CTAB
M  V30 COUNTS 38 40 0 0 0
M  V30 BEGIN ATOM
M  V30 1 C 2.568575 -6.138543 -0.076289 0
M  V30 2 O 2.317395 -5.490510 1.153917 0
M  V30 3 C 2.105139 -4.126284 1.280521 0
M  V30 4 C 1.883541 -3.756918 2.590912 0
M  V30 5 C 1.650022 -2.428218 2.922007 0
M  V30 6 C 1.650576 -1.512438 1.895264 0
M  V30 7 C 1.874704 -1.907205 0.593289 0
M  V30 8 C 1.865591 -0.897616 -0.459685 0
M  V30 9 N 2.055558 -1.048850 -1.781158 0
M  V30 10 N 1.953939 0.166953 -2.337310 0
M  V30 11 C 1.699492 1.061683 -1.337805 0
M  V30 12 S 1.534961 2.742310 -1.914042 0
M  V30 13 C -0.161511 3.114438 -2.342022 0
M  V30 14 C -1.091113 3.118336 -1.195841 0
M  V30 15 O -2.286449 3.380792 -1.554428 0
M  V30 16 N -0.721459 2.865573 0.137456 0
M  V30 17 C -1.579890 2.858377 1.271984 0
M  V30 18 C -2.183063 1.639299 1.609198 0
M  V30 19 C -2.977241 1.829381 2.734542 0
M  V30 20 C -3.826747 0.875693 3.499205 0
M  V30 21 O -2.832599 3.099748 3.024687 0
M  V30 22 N -2.051759 3.717204 2.223640 0
M  V30 23 O 1.657385 0.368864 -0.236992 0
M  V30 24 C 2.107636 -3.217132 0.245586 0
M  V30 25 H 2.228552 -7.206617 -0.047602 0
M  V30 26 H 2.022611 -5.593638 -0.868856 0
M  V30 27 H 3.661599 -6.144815 -0.269555 0
M  V30 28 H 1.870013 -4.428556 3.446740 0
M  V30 29 H 1.473160 -2.111481 3.941324 0
M  V30 30 H 1.467659 -0.471687 2.155176 0
M  V30 31 H -0.255075 4.034719 -2.964495 0
M  V30 32 H -0.527960 2.288377 -3.020737 0
M  V30 33 H 0.271491 2.659166 0.362003 0
M  V30 34 H -2.121478 0.659067 1.155244 0
M  V30 35 H -4.860254 1.233085 3.540099 0
M  V30 36 H -3.404914 0.636689 4.495547 0
M  V30 37 H -3.851984 -0.109481 2.961573 0
M  V30 38 H 2.288617 -3.580896 -0.750915 0
M  V30 END ATOM
M  V30 BEGIN BOND
M  V30 1 1 1 2
M  V30 2 1 2 3
M  V30 3 2 3 4
M  V30 4 1 4 5
M  V30 5 2 5 6
M  V30 6 1 6 7
M  V30 7 1 7 8
M  V30 8 2 8 9
M  V30 9 1 9 10
M  V30 10 2 10 11
M  V30 11 1 11 12
M  V30 12 1 12 13
M  V30 13 1 13 14
M  V30 14 2 14 15
M  V30 15 1 14 16
M  V30 16 1 16 17
M  V30 17 1 17 18
M  V30 18 2 18 19
M  V30 19 1 19 20
M  V30 20 1 19 21
M  V30 21 1 21 22
M  V30 22 1 11 23
M  V30 23 2 7 24
M  V30 24 1 24 3
M  V30 25 1 23 8
M  V30 26 2 22 17
M  V30 27 1 1 25
M  V30 28 1 1 26
M  V30 29 1 1 27
M  V30 30 1 4 28
M  V30 31 1 5 29
M  V30 32 1 6 30
M  V30 33 1 13 31
M  V30 34 1 13 32
M  V30 35 1 16 33
M  V30 36 1 18 34
M  V30 37 1 20 35
M  V30 38 1 20 36
M  V30 39 1 20 37
M  V30 40 1 24 38
M  V30 END BOND
M  V30 END CTAB
M  END
>  <Dataset>  (831) 
ChEMBL_Kinases

>  <Ligand_Instance>  (831) 
nan

>  <PDB_ID>  (831) 
nan

>  <Standardized_SMILES>  (831) 
COc1cccc(-c2nnc(SCC(=O)Nc3cc(C)on3)o2)c1

>  <Name>  (831) 
nan

>  <Pocket>  (831) 
nan

>  <ATP_Site>  (831) 
nan

>  <Peripheral>  (831) 
nan

>  <Num_H_Atoms_ProtBoundConf>  (831) 
nan

>  <Num_Resolved_Atoms>  (831) 
nan

>  <Num_Not_Resolved_Atoms>  (831) 
nan

$$$$
CHEMBL1498307
     RDKit          3D

  0  0  0  0  0  0  0  0  0  0999 V3000
M  V30 BEGIN CTAB
M  V30 COUNTS 39 41 0 0 0
M  V30 BEGIN ATOM
M  V30 1 C -1.548770 -4.523518 -1.200980 0
M  V30 2 C -1.579046 -3.415077 -2.250521 0
M  V30 3 C -0.231565 -2.765799 -2.322119 0
M  V30 4 C 0.633385 -3.052962 -3.362164 0
M  V30 5 C 1.872609 -2.438812 -3.395130 0
M  V30 6 C 2.232655 -1.557413 -2.405780 0
M  V30 7 C 1.355402 -1.286205 -1.379500 0
M  V30 8 C 1.416387 -0.473578 -0.273656 0
M  V30 9 C 2.572079 0.341970 0.051004 0
M  V30 10 O 3.589398 0.326764 -0.685303 0
M  V30 11 C 2.820085 1.261005 1.158321 0
M  V30 12 O 1.704351 1.371176 2.036765 0
M  V30 13 C 1.726153 2.188032 3.150788 0
M  V30 14 O 2.856240 2.725384 3.160948 0
M  V30 15 C 0.527310 2.238517 3.995965 0
M  V30 16 C 0.378209 2.972119 5.095927 0
M  V30 17 C -0.797564 2.930360 5.794525 0
M  V30 18 C -1.789012 2.070826 5.255576 0
M  V30 19 N -3.115283 1.776173 5.703536 0 CHG=1 VAL=4
M  V30 20 O -3.471540 2.351870 6.718783 0
M  V30 21 O -3.849920 0.888060 4.961407 0 CHG=-1 VAL=1
M  V30 22 S -1.006823 1.374278 3.799649 0
M  V30 23 C 0.230864 -0.595835 0.416056 0
M  V30 24 N -0.588562 -1.471661 -0.226869 0
M  V30 25 C 0.112460 -1.884218 -1.321020 0
M  V30 26 H -0.501086 -4.924274 -1.173459 0
M  V30 27 H -1.804662 -4.172276 -0.192687 0
M  V30 28 H -2.212984 -5.369919 -1.456810 0
M  V30 29 H -2.367803 -2.694772 -1.973566 0
M  V30 30 H -1.863859 -3.892534 -3.205938 0
M  V30 31 H 0.303942 -3.756326 -4.121090 0
M  V30 32 H 2.533281 -2.675655 -4.215145 0
M  V30 33 H 3.198546 -1.112772 -2.479947 0
M  V30 34 H 2.972356 2.294853 0.754094 0
M  V30 35 H 3.750360 1.040047 1.726703 0
M  V30 36 H 1.173592 3.630055 5.485828 0
M  V30 37 H -1.072092 3.460683 6.696335 0
M  V30 38 H -0.031274 -0.088427 1.324779 0
M  V30 39 H -1.540856 -1.730944 0.100811 0
M  V30 END ATOM
M  V30 BEGIN BOND
M  V30 1 1 1 2
M  V30 2 1 2 3
M  V30 3 2 3 4
M  V30 4 1 4 5
M  V30 5 2 5 6
M  V30 6 1 6 7
M  V30 7 1 7 8
M  V30 8 1 8 9
M  V30 9 2 9 10
M  V30 10 1 9 11
M  V30 11 1 11 12
M  V30 12 1 12 13
M  V30 13 2 13 14
M  V30 14 1 13 15
M  V30 15 2 15 16
M  V30 16 1 16 17
M  V30 17 2 17 18
M  V30 18 1 18 19
M  V30 19 2 19 20
M  V30 20 1 19 21
M  V30 21 1 18 22
M  V30 22 2 8 23
M  V30 23 1 23 24
M  V30 24 1 24 25
M  V30 25 1 25 3
M  V30 26 2 25 7
M  V30 27 1 22 15
M  V30 28 1 1 26
M  V30 29 1 1 27
M  V30 30 1 1 28
M  V30 31 1 2 29
M  V30 32 1 2 30
M  V30 33 1 4 31
M  V30 34 1 5 32
M  V30 35 1 6 33
M  V30 36 1 11 34
M  V30 37 1 11 35
M  V30 38 1 16 36
M  V30 39 1 17 37
M  V30 40 1 23 38
M  V30 41 1 24 39
M  V30 END BOND
M  V30 END CTAB
M  END
>  <Dataset>  (832) 
ChEMBL_Kinases

>  <Ligand_Instance>  (832) 
nan

>  <PDB_ID>  (832) 
nan

>  <Standardized_SMILES>  (832) 
CCc1cccc2c(C(=O)COC(=O)c3ccc([N+](=O)[O-])s3)c[nH]c12

>  <Name>  (832) 
nan

>  <Pocket>  (832) 
nan

>  <ATP_Site>  (832) 
nan

>  <Peripheral>  (832) 
nan

>  <Num_H_Atoms_ProtBoundConf>  (832) 
nan

>  <Num_Resolved_Atoms>  (832) 
nan

>  <Num_Not_Resolved_Atoms>  (832) 
nan

$$$$
CHEMBL1505364
     RDKit          3D

  0  0  0  0  0  0  0  0  0  0999 V3000
M  V30 BEGIN CTAB
M  V30 COUNTS 27 28 0 0 0
M  V30 BEGIN ATOM
M  V30 1 C -1.553385 -3.260977 4.194123 0
M  V30 2 C -0.343424 -2.438637 4.043121 0
M  V30 3 O 0.436590 -2.336136 5.021926 0
M  V30 4 C 0.067031 -1.699421 2.835408 0
M  V30 5 S 1.617649 -0.768677 2.967466 0
M  V30 6 C 1.448174 -0.145784 1.160206 0
M  V30 7 N 2.411473 0.775690 0.429318 0
M  V30 8 C 1.963427 1.041522 -0.917910 0
M  V30 9 C 0.875411 1.878419 -0.928967 0
M  V30 10 C 0.286112 2.279187 -2.137348 0
M  V30 11 C 0.930780 1.732886 -3.256470 0
M  V30 12 C 2.020193 0.893279 -3.263045 0
M  V30 13 N 2.548076 0.540105 -2.050048 0
M  V30 14 N 0.495118 -0.651642 0.911356 0
M  V30 15 C -0.336872 -1.434117 1.540961 0
M  V30 16 C -1.601507 -2.048175 1.070195 0
M  V30 17 H -1.510902 -4.099200 3.472217 0
M  V30 18 H -2.509087 -2.692046 4.172056 0
M  V30 19 H -1.563772 -3.763579 5.208482 0
M  V30 20 H 3.151331 0.978691 1.102291 0
M  V30 21 H 0.384806 2.290245 -0.066813 0
M  V30 22 H -0.562576 2.921512 -2.302555 0
M  V30 23 H 0.531398 1.991992 -4.238900 0
M  V30 24 H 2.472618 0.506465 -4.158097 0
M  V30 25 H -2.349722 -2.199763 1.852407 0
M  V30 26 H -2.098291 -1.428740 0.285458 0
M  V30 27 H -1.364988 -3.007459 0.531398 0
M  V30 END ATOM
M  V30 BEGIN BOND
M  V30 1 1 1 2
M  V30 2 2 2 3
M  V30 3 1 2 4
M  V30 4 1 4 5
M  V30 5 1 5 6
M  V30 6 1 6 7
M  V30 7 1 7 8
M  V30 8 2 8 9
M  V30 9 1 9 10
M  V30 10 2 10 11
M  V30 11 1 11 12
M  V30 12 2 12 13
M  V30 13 2 6 14
M  V30 14 1 14 15
M  V30 15 1 15 16
M  V30 16 2 15 4
M  V30 17 1 13 8
M  V30 18 1 1 17
M  V30 19 1 1 18
M  V30 20 1 1 19
M  V30 21 1 7 20
M  V30 22 1 9 21
M  V30 23 1 10 22
M  V30 24 1 11 23
M  V30 25 1 12 24
M  V30 26 1 16 25
M  V30 27 1 16 26
M  V30 28 1 16 27
M  V30 END BOND
M  V30 END CTAB
M  END
>  <Dataset>  (833) 
ChEMBL_Kinases

>  <Ligand_Instance>  (833) 
nan

>  <PDB_ID>  (833) 
nan

>  <Standardized_SMILES>  (833) 
CC(=O)c1sc(Nc2ccccn2)nc1C

>  <Name>  (833) 
nan

>  <Pocket>  (833) 
nan

>  <ATP_Site>  (833) 
nan

>  <Peripheral>  (833) 
nan

>  <Num_H_Atoms_ProtBoundConf>  (833) 
nan

>  <Num_Resolved_Atoms>  (833) 
nan

>  <Num_Not_Resolved_Atoms>  (833) 
nan

$$$$
CHEMBL1504983
     RDKit          3D

  0  0  0  0  0  0  0  0  0  0999 V3000
M  V30 BEGIN CTAB
M  V30 COUNTS 36 38 0 0 0
M  V30 BEGIN ATOM
M  V30 1 C -0.609563 -3.688632 4.550448 0
M  V30 2 O -0.945540 -4.103703 3.250859 0
M  V30 3 C -0.866127 -3.238069 2.169089 0
M  V30 4 C -0.455723 -1.933940 2.322630 0
M  V30 5 C -0.370262 -1.050342 1.240157 0
M  V30 6 N 0.034798 0.301990 1.395681 0
M  V30 7 C 0.810131 1.180649 0.597257 0
M  V30 8 C 1.493890 0.831047 -0.545611 0
M  V30 9 C 2.236465 1.733761 -1.311477 0
M  V30 10 C 2.929386 1.188588 -2.533322 0
M  V30 11 N 2.264796 3.003393 -0.882952 0
M  V30 12 C 1.585615 3.322174 0.242040 0
M  V30 13 N 1.489648 4.542279 0.836296 0
M  V30 14 C 0.722368 4.408571 1.924115 0
M  V30 15 N 0.356721 3.125868 1.990745 0
M  V30 16 N 0.879747 2.465790 0.971046 0
M  V30 17 C -0.729019 -1.590476 0.017125 0
M  V30 18 C -1.146934 -2.893653 -0.185599 0
M  V30 19 O -1.493528 -3.379847 -1.438380 0
M  V30 20 C -1.429376 -2.539781 -2.573311 0
M  V30 21 C -1.208243 -3.711159 0.922628 0
M  V30 22 H -1.452081 -3.197374 5.071642 0
M  V30 23 H -0.331693 -4.574375 5.161031 0
M  V30 24 H 0.269922 -3.021914 4.579427 0
M  V30 25 H -0.181949 -1.526352 3.276074 0
M  V30 26 H -0.356709 0.658291 2.303344 0
M  V30 27 H 1.471894 -0.197350 -0.873638 0
M  V30 28 H 3.661581 0.386182 -2.221918 0
M  V30 29 H 3.438947 1.993137 -3.063007 0
M  V30 30 H 2.178290 0.690375 -3.208488 0
M  V30 31 H 0.535583 5.289071 2.526825 0
M  V30 32 H -0.714961 -1.003966 -0.886345 0
M  V30 33 H -0.448038 -2.083462 -2.732238 0
M  V30 34 H -2.154566 -1.698222 -2.379560 0
M  V30 35 H -1.716800 -3.072500 -3.502418 0
M  V30 36 H -1.535003 -4.742918 0.784793 0
M  V30 END ATOM
M  V30 BEGIN BOND
M  V30 1 1 1 2
M  V30 2 1 2 3
M  V30 3 2 3 4
M  V30 4 1 4 5
M  V30 5 1 5 6
M  V30 6 1 6 7
M  V30 7 2 7 8
M  V30 8 1 8 9
M  V30 9 1 9 10
M  V30 10 2 9 11
M  V30 11 1 11 12
M  V30 12 2 12 13
M  V30 13 1 13 14
M  V30 14 2 14 15
M  V30 15 1 15 16
M  V30 16 2 5 17
M  V30 17 1 17 18
M  V30 18 1 18 19
M  V30 19 1 19 20
M  V30 20 2 18 21
M  V30 21 1 21 3
M  V30 22 1 16 7
M  V30 23 1 16 12
M  V30 24 1 1 22
M  V30 25 1 1 23
M  V30 26 1 1 24
M  V30 27 1 4 25
M  V30 28 1 6 26
M  V30 29 1 8 27
M  V30 30 1 10 28
M  V30 31 1 10 29
M  V30 32 1 10 30
M  V30 33 1 14 31
M  V30 34 1 17 32
M  V30 35 1 20 33
M  V30 36 1 20 34
M  V30 37 1 20 35
M  V30 38 1 21 36
M  V30 END BOND
M  V30 END CTAB
M  END
>  <Dataset>  (834) 
ChEMBL_Kinases

>  <Ligand_Instance>  (834) 
nan

>  <PDB_ID>  (834) 
nan

>  <Standardized_SMILES>  (834) 
COc1cc(Nc2cc(C)nc3ncnn23)cc(OC)c1

>  <Name>  (834) 
nan

>  <Pocket>  (834) 
nan

>  <ATP_Site>  (834) 
nan

>  <Peripheral>  (834) 
nan

>  <Num_H_Atoms_ProtBoundConf>  (834) 
nan

>  <Num_Resolved_Atoms>  (834) 
nan

>  <Num_Not_Resolved_Atoms>  (834) 
nan

$$$$
CHEMBL1504969
     RDKit          3D

  0  0  0  0  0  0  0  0  0  0999 V3000
M  V30 BEGIN CTAB
M  V30 COUNTS 51 54 0 0 0
M  V30 BEGIN ATOM
M  V30 1 C 1.635753 -3.969036 4.376609 0
M  V30 2 C 2.793713 -3.123506 3.946613 0
M  V30 3 C 3.784451 -2.833424 4.880635 0
M  V30 4 C 4.864897 -2.051961 4.501849 0
M  V30 5 C 4.973026 -1.557905 3.214433 0
M  V30 6 C 3.973272 -1.868565 2.325767 0
M  V30 7 N 3.829235 -1.495609 0.941510 0
M  V30 8 C 3.140419 -0.296089 0.646787 0
M  V30 9 O 2.665197 0.427178 1.573858 0
M  V30 10 C 2.904044 0.234383 -0.742613 0
M  V30 11 C 2.136725 1.521020 -0.544784 0
M  V30 12 C 0.645866 1.300737 -0.491569 0
M  V30 13 N 0.278312 -0.042933 -0.249356 0
M  V30 14 S -1.295481 -0.251015 0.298314 0
M  V30 15 O -1.558708 -1.690747 0.746161 0
M  V30 16 O -1.424924 0.546840 1.600275 0
M  V30 17 C -2.560991 0.247781 -0.753791 0
M  V30 18 C -2.591069 0.751566 -2.031647 0
M  V30 19 C -3.716688 1.093419 -2.741268 0
M  V30 20 C -4.946539 0.926086 -2.141411 0
M  V30 21 C -4.981344 0.424455 -0.861054 0
M  V30 22 C -6.250774 0.290507 -0.341286 0
M  V30 23 C -6.403458 -0.202654 0.933874 0
M  V30 24 C -5.264553 -0.536799 1.622221 0
M  V30 25 N -4.047415 -0.389861 1.076898 0
M  V30 26 C -3.820966 0.084416 -0.160461 0
M  V30 27 C 0.744194 -0.924183 -1.262777 0
M  V30 28 C 2.188362 -0.777783 -1.592144 0
M  V30 29 N 2.913927 -2.634916 2.697687 0
M  V30 30 H 1.447823 -3.841793 5.460912 0
M  V30 31 H 0.745673 -3.605152 3.838674 0
M  V30 32 H 1.856196 -5.037930 4.217481 0
M  V30 33 H 3.750663 -3.198211 5.915018 0
M  V30 34 H 5.682953 -1.775887 5.163223 0
M  V30 35 H 5.735678 -0.951236 2.781475 0
M  V30 36 H 4.188765 -2.030875 0.111760 0
M  V30 37 H 3.885483 0.439711 -1.209188 0
M  V30 38 H 2.539510 2.017477 0.359982 0
M  V30 39 H 2.363393 2.145344 -1.429380 0
M  V30 40 H 0.181492 1.809739 -1.350037 0
M  V30 41 H 0.305831 1.891268 0.416281 0
M  V30 42 H -1.609006 0.853034 -2.457876 0
M  V30 43 H -3.541623 1.475965 -3.738956 0
M  V30 44 H -5.802425 1.205060 -2.728895 0
M  V30 45 H -7.145870 0.553922 -0.884500 0
M  V30 46 H -7.368526 -0.333538 1.402837 0
M  V30 47 H -5.334964 -0.929089 2.629213 0
M  V30 48 H 0.545269 -1.982468 -0.988406 0
M  V30 49 H 0.144460 -0.742200 -2.169014 0
M  V30 50 H 2.757339 -1.741193 -1.434296 0
M  V30 51 H 2.311105 -0.550054 -2.650981 0
M  V30 END ATOM
M  V30 BEGIN BOND
M  V30 1 1 1 2
M  V30 2 2 2 3
M  V30 3 1 3 4
M  V30 4 2 4 5
M  V30 5 1 5 6
M  V30 6 1 6 7
M  V30 7 1 7 8
M  V30 8 2 8 9
M  V30 9 1 8 10
M  V30 10 1 10 11
M  V30 11 1 11 12
M  V30 12 1 12 13
M  V30 13 1 13 14
M  V30 14 2 14 15
M  V30 15 2 14 16
M  V30 16 1 14 17
M  V30 17 2 17 18
M  V30 18 1 18 19
M  V30 19 2 19 20
M  V30 20 1 20 21
M  V30 21 2 21 22
M  V30 22 1 22 23
M  V30 23 2 23 24
M  V30 24 1 24 25
M  V30 25 2 25 26
M  V30 26 1 13 27
M  V30 27 1 27 28
M  V30 28 2 6 29
M  V30 29 1 29 2
M  V30 30 1 28 10
M  V30 31 1 26 17
M  V30 32 1 26 21
M  V30 33 1 1 30
M  V30 34 1 1 31
M  V30 35 1 1 32
M  V30 36 1 3 33
M  V30 37 1 4 34
M  V30 38 1 5 35
M  V30 39 1 7 36
M  V30 40 1 10 37
M  V30 41 1 11 38
M  V30 42 1 11 39
M  V30 43 1 12 40
M  V30 44 1 12 41
M  V30 45 1 18 42
M  V30 46 1 19 43
M  V30 47 1 20 44
M  V30 48 1 22 45
M  V30 49 1 23 46
M  V30 50 1 24 47
M  V30 51 1 27 48
M  V30 52 1 27 49
M  V30 53 1 28 50
M  V30 54 1 28 51
M  V30 END BOND
M  V30 END CTAB
M  END
>  <Dataset>  (835) 
ChEMBL_Kinases

>  <Ligand_Instance>  (835) 
nan

>  <PDB_ID>  (835) 
nan

>  <Standardized_SMILES>  (835) 
Cc1cccc(NC(=O)C2CCN(S(=O)(=O)c3cccc4cccnc34)CC2)n1

>  <Name>  (835) 
nan

>  <Pocket>  (835) 
nan

>  <ATP_Site>  (835) 
nan

>  <Peripheral>  (835) 
nan

>  <Num_H_Atoms_ProtBoundConf>  (835) 
nan

>  <Num_Resolved_Atoms>  (835) 
nan

>  <Num_Not_Resolved_Atoms>  (835) 
nan

$$$$
CHEMBL1504882
     RDKit          3D

  0  0  0  0  0  0  0  0  0  0999 V3000
M  V30 BEGIN CTAB
M  V30 COUNTS 40 44 0 0 0
M  V30 BEGIN ATOM
M  V30 1 O 0.571173 -0.389817 1.660629 0
M  V30 2 C 0.489210 -1.518752 1.088464 0
M  V30 3 C 1.807224 -2.004548 0.616508 0
M  V30 4 N 2.798917 -1.040042 0.951716 0
M  V30 5 N 3.517292 -1.106953 2.069584 0
M  V30 6 C 4.409711 -0.129042 2.184867 0
M  V30 7 C 4.272301 0.634682 1.070846 0
M  V30 8 C 3.260426 0.029041 0.338065 0
M  V30 9 C 2.945488 0.692896 -0.902325 0
M  V30 10 C 1.940241 0.164493 -1.669599 0
M  V30 11 C 1.593422 0.790147 -2.871044 0
M  V30 12 C 2.291803 1.931602 -3.234698 0
M  V30 13 C 3.305188 2.482397 -2.481131 0
M  V30 14 C 3.602742 1.822155 -1.307809 0
M  V30 15 O 4.630841 2.375501 -0.537004 0
M  V30 16 C 5.027864 1.857405 0.693964 0
M  V30 17 N -0.628753 -2.331241 0.853330 0
M  V30 18 C -2.025988 -2.046877 1.233966 0
M  V30 19 N -2.557637 -2.325667 2.213184 0
M  V30 20 C -3.785903 -2.111365 2.624713 0
M  V30 21 C -4.423771 -2.445956 3.799797 0
M  V30 22 C -5.732270 -2.104029 3.993224 0
M  V30 23 C -6.525130 -1.424382 3.091758 0
M  V30 24 C -5.952433 -1.064309 1.908088 0
M  V30 25 C -4.578298 -1.429206 1.717503 0
M  V30 26 S -3.442763 -1.148296 0.304211 0
M  V30 27 H 1.838558 -2.466989 -0.361939 0
M  V30 28 H 1.988355 -2.918491 1.299686 0
M  V30 29 H 5.081435 -0.029879 3.035317 0
M  V30 30 H 1.321639 -0.688018 -1.508381 0
M  V30 31 H 0.818499 0.462811 -3.556037 0
M  V30 32 H 2.047124 2.438212 -4.158195 0
M  V30 33 H 3.847776 3.372281 -2.766816 0
M  V30 34 H 4.980513 2.567549 1.533920 0
M  V30 35 H 6.100059 1.519125 0.593715 0
M  V30 36 H -0.536202 -3.234474 0.369187 0
M  V30 37 H -3.943914 -2.981550 4.613288 0
M  V30 38 H -6.243125 -2.371824 4.933950 0
M  V30 39 H -7.554174 -1.135863 3.201587 0
M  V30 40 H -6.353959 -0.541170 1.065737 0
M  V30 END ATOM
M  V30 BEGIN BOND
M  V30 1 2 1 2
M  V30 2 1 2 3
M  V30 3 1 3 4
M  V30 4 1 4 5
M  V30 5 2 5 6
M  V30 6 1 6 7
M  V30 7 2 7 8
M  V30 8 1 8 9
M  V30 9 2 9 10
M  V30 10 1 10 11
M  V30 11 2 11 12
M  V30 12 1 12 13
M  V30 13 2 13 14
M  V30 14 1 14 15
M  V30 15 1 15 16
M  V30 16 1 2 17
M  V30 17 1 17 18
M  V30 18 2 18 19
M  V30 19 1 19 20
M  V30 20 2 20 21
M  V30 21 1 21 22
M  V30 22 2 22 23
M  V30 23 1 23 24
M  V30 24 2 24 25
M  V30 25 1 25 26
M  V30 26 1 8 4
M  V30 27 1 14 9
M  V30 28 1 26 18
M  V30 29 1 16 7
M  V30 30 1 25 20
M  V30 31 1 3 27
M  V30 32 1 3 28
M  V30 33 1 6 29
M  V30 34 1 10 30
M  V30 35 1 11 31
M  V30 36 1 12 32
M  V30 37 1 13 33
M  V30 38 1 16 34
M  V30 39 1 16 35
M  V30 40 1 17 36
M  V30 41 1 21 37
M  V30 42 1 22 38
M  V30 43 1 23 39
M  V30 44 1 24 40
M  V30 END BOND
M  V30 END CTAB
M  END
>  <Dataset>  (836) 
ChEMBL_Kinases

>  <Ligand_Instance>  (836) 
nan

>  <PDB_ID>  (836) 
nan

>  <Standardized_SMILES>  (836) 
O=C(Cn1ncc2c1-c1ccccc1OC2)Nc1nc2ccccc2s1

>  <Name>  (836) 
nan

>  <Pocket>  (836) 
nan

>  <ATP_Site>  (836) 
nan

>  <Peripheral>  (836) 
nan

>  <Num_H_Atoms_ProtBoundConf>  (836) 
nan

>  <Num_Resolved_Atoms>  (836) 
nan

>  <Num_Not_Resolved_Atoms>  (836) 
nan

$$$$
CHEMBL1504659
     RDKit          3D

  0  0  0  0  0  0  0  0  0  0999 V3000
M  V30 BEGIN CTAB
M  V30 COUNTS 46 47 0 0 0
M  V30 BEGIN ATOM
M  V30 1 C 0.734464 -6.797332 2.464131 0
M  V30 2 O -0.171905 -5.987027 1.765145 0
M  V30 3 C 0.184839 -4.872768 1.056733 0
M  V30 4 C 1.501537 -4.402065 0.934281 0
M  V30 5 C 1.814871 -3.263289 0.208213 0
M  V30 6 C 0.844560 -2.526578 -0.435732 0
M  V30 7 C 1.074390 -1.302573 -1.246173 0
M  V30 8 C 1.619329 -0.197460 -0.473146 0
M  V30 9 O 2.819287 -0.650433 -0.313392 0
M  V30 10 C 1.374966 1.096772 0.137244 0
M  V30 11 C 2.423785 1.753628 0.714563 0
M  V30 12 C 2.231328 2.990137 1.278441 0
M  V30 13 C 1.003021 3.584606 1.277219 0
M  V30 14 O 0.745004 4.812503 1.822965 0
M  V30 15 C 1.705454 5.603774 2.453737 0
M  V30 16 C -0.071957 2.928864 0.694037 0
M  V30 17 O -1.316885 3.601060 0.724982 0
M  V30 18 C -2.106809 3.364001 1.901606 0
M  V30 19 C 0.119943 1.689572 0.127134 0
M  V30 20 C -1.047311 1.009967 -0.481446 0
M  V30 21 C -0.444665 -3.053271 -0.272906 0
M  V30 22 C -0.818754 -4.173416 0.430607 0
M  V30 23 O -2.181371 -4.515931 0.457292 0
M  V30 24 C -3.136632 -3.727135 -0.234474 0
M  V30 25 H 0.159931 -7.386783 3.232458 0
M  V30 26 H 1.499046 -6.220527 3.002064 0
M  V30 27 H 1.253343 -7.482215 1.767437 0
M  V30 28 H 2.286743 -4.973879 1.442013 0
M  V30 29 H 2.835114 -2.923119 0.127519 0
M  V30 30 H 0.090625 -1.040070 -1.728004 0
M  V30 31 H 1.750255 -1.544317 -2.106494 0
M  V30 32 H 3.440478 1.341303 0.756170 0
M  V30 33 H 3.090968 3.461930 1.715199 0
M  V30 34 H 1.275071 6.151952 3.345452 0
M  V30 35 H 2.141993 6.334500 1.719400 0
M  V30 36 H 2.559915 4.997078 2.844840 0
M  V30 37 H -2.767261 2.486129 1.801690 0
M  V30 38 H -2.640182 4.281586 2.239059 0
M  V30 39 H -1.425441 3.089878 2.762644 0
M  V30 40 H -1.023032 1.068956 -1.574485 0
M  V30 41 H -1.137085 -0.005217 -0.094661 0
M  V30 42 H -2.002885 1.545217 -0.200360 0
M  V30 43 H -1.236018 -2.488939 -0.772175 0
M  V30 44 H -4.142223 -4.182464 -0.142702 0
M  V30 45 H -2.854603 -3.831559 -1.320349 0
M  V30 46 H -3.166942 -2.691516 0.080126 0
M  V30 END ATOM
M  V30 BEGIN BOND
M  V30 1 1 1 2
M  V30 2 1 2 3
M  V30 3 2 3 4
M  V30 4 1 4 5
M  V30 5 2 5 6
M  V30 6 1 6 7
M  V30 7 1 7 8
M  V30 8 2 8 9
M  V30 9 1 8 10
M  V30 10 2 10 11
M  V30 11 1 11 12
M  V30 12 2 12 13
M  V30 13 1 13 14
M  V30 14 1 14 15
M  V30 15 1 13 16
M  V30 16 1 16 17
M  V30 17 1 17 18
M  V30 18 2 16 19
M  V30 19 1 19 20
M  V30 20 1 6 21
M  V30 21 2 21 22
M  V30 22 1 22 23
M  V30 23 1 23 24
M  V30 24 1 22 3
M  V30 25 1 19 10
M  V30 26 1 1 25
M  V30 27 1 1 26
M  V30 28 1 1 27
M  V30 29 1 4 28
M  V30 30 1 5 29
M  V30 31 1 7 30
M  V30 32 1 7 31
M  V30 33 1 11 32
M  V30 34 1 12 33
M  V30 35 1 15 34
M  V30 36 1 15 35
M  V30 37 1 15 36
M  V30 38 1 18 37
M  V30 39 1 18 38
M  V30 40 1 18 39
M  V30 41 1 20 40
M  V30 42 1 20 41
M  V30 43 1 20 42
M  V30 44 1 21 43
M  V30 45 1 24 44
M  V30 46 1 24 45
M  V30 47 1 24 46
M  V30 END BOND
M  V30 END CTAB
M  END
>  <Dataset>  (837) 
ChEMBL_Kinases

>  <Ligand_Instance>  (837) 
nan

>  <PDB_ID>  (837) 
nan

>  <Standardized_SMILES>  (837) 
COc1ccc(CC(=O)c2ccc(OC)c(OC)c2C)cc1OC

>  <Name>  (837) 
nan

>  <Pocket>  (837) 
nan

>  <ATP_Site>  (837) 
nan

>  <Peripheral>  (837) 
nan

>  <Num_H_Atoms_ProtBoundConf>  (837) 
nan

>  <Num_Resolved_Atoms>  (837) 
nan

>  <Num_Not_Resolved_Atoms>  (837) 
nan

$$$$
CHEMBL1504626
     RDKit          3D

  0  0  0  0  0  0  0  0  0  0999 V3000
M  V30 BEGIN CTAB
M  V30 COUNTS 36 37 0 0 0
M  V30 BEGIN ATOM
M  V30 1 C -0.857725 -5.304148 0.489354 0
M  V30 2 O 0.454946 -5.621038 0.912696 0
M  V30 3 C 1.272805 -4.546483 1.291235 0
M  V30 4 C 2.555205 -4.836891 1.706449 0
M  V30 5 C 3.452298 -3.868285 2.102668 0
M  V30 6 C 3.006629 -2.564521 2.067096 0
M  V30 7 C 1.731418 -2.233546 1.658194 0
M  V30 8 N 1.198543 -0.909991 1.593441 0
M  V30 9 C 1.369992 -0.225032 0.370609 0
M  V30 10 O 1.664792 0.118667 -0.798311 0
M  V30 11 C 0.844831 1.143409 0.233377 0
M  V30 12 C 1.073162 1.766316 -1.119190 0
M  V30 13 S 0.339498 3.405680 -1.002775 0
M  V30 14 O 0.555420 4.182828 -2.267784 0
M  V30 15 O 1.007470 4.091905 0.145045 0
M  V30 16 C -1.310936 3.189692 -0.645626 0
M  V30 17 C -2.081376 3.624290 0.452780 0
M  V30 18 C -3.409753 3.332395 0.539069 0
M  V30 19 C -3.959621 2.528978 -0.610746 0
M  V30 20 S -2.428250 2.301894 -1.688960 0
M  V30 21 C 0.826178 -3.223491 1.257059 0
M  V30 22 H -1.384936 -4.620541 1.208023 0
M  V30 23 H -0.858528 -4.764800 -0.500168 0
M  V30 24 H -1.494326 -6.226443 0.435695 0
M  V30 25 H 2.876357 -5.868139 1.723746 0
M  V30 26 H 4.463841 -4.047997 2.434503 0
M  V30 27 H 3.627812 -1.709999 2.357692 0
M  V30 28 H 0.699996 -0.408238 2.357203 0
M  V30 29 H 1.272778 1.849655 0.975477 0
M  V30 30 H -0.240947 1.099516 0.456730 0
M  V30 31 H 2.155999 1.903592 -1.316140 0
M  V30 32 H 0.608816 1.216995 -1.956121 0
M  V30 33 H -1.561168 4.190688 1.202926 0
M  V30 34 H -4.038335 3.637457 1.351296 0
M  V30 35 H -5.055030 2.277929 -0.557148 0
M  V30 36 H -0.164191 -3.009175 0.935589 0
M  V30 END ATOM
M  V30 BEGIN BOND
M  V30 1 1 1 2
M  V30 2 1 2 3
M  V30 3 2 3 4
M  V30 4 1 4 5
M  V30 5 2 5 6
M  V30 6 1 6 7
M  V30 7 1 7 8
M  V30 8 1 8 9
M  V30 9 2 9 10
M  V30 10 1 9 11
M  V30 11 1 11 12
M  V30 12 1 12 13
M  V30 13 2 13 14
M  V30 14 2 13 15
M  V30 15 1 13 16
M  V30 16 2 16 17
M  V30 17 1 17 18
M  V30 18 2 18 19
M  V30 19 1 19 20
M  V30 20 2 7 21
M  V30 21 1 21 3
M  V30 22 1 20 16
M  V30 23 1 1 22
M  V30 24 1 1 23
M  V30 25 1 1 24
M  V30 26 1 4 25
M  V30 27 1 5 26
M  V30 28 1 6 27
M  V30 29 1 8 28
M  V30 30 1 11 29
M  V30 31 1 11 30
M  V30 32 1 12 31
M  V30 33 1 12 32
M  V30 34 1 17 33
M  V30 35 1 18 34
M  V30 36 1 19 35
M  V30 37 1 21 36
M  V30 END BOND
M  V30 END CTAB
M  END
>  <Dataset>  (838) 
ChEMBL_Kinases

>  <Ligand_Instance>  (838) 
nan

>  <PDB_ID>  (838) 
nan

>  <Standardized_SMILES>  (838) 
COc1cccc(NC(=O)CCS(=O)(=O)c2cccs2)c1

>  <Name>  (838) 
nan

>  <Pocket>  (838) 
nan

>  <ATP_Site>  (838) 
nan

>  <Peripheral>  (838) 
nan

>  <Num_H_Atoms_ProtBoundConf>  (838) 
nan

>  <Num_Resolved_Atoms>  (838) 
nan

>  <Num_Not_Resolved_Atoms>  (838) 
nan

$$$$
CHEMBL1504324
     RDKit          3D

  0  0  0  0  0  0  0  0  0  0999 V3000
M  V30 BEGIN CTAB
M  V30 COUNTS 35 38 0 0 0
M  V30 BEGIN ATOM
M  V30 1 C -1.244846 -3.926808 0.487427 0
M  V30 2 C -0.138933 -3.192609 1.038188 0
M  V30 3 S 0.577102 -3.476985 2.606946 0
M  V30 4 C 1.857995 -2.179016 2.514307 0
M  V30 5 N 2.845588 -1.773503 3.330410 0
M  V30 6 C 3.688934 -0.799194 3.020177 0
M  V30 7 N 3.475681 -0.257696 1.841649 0
M  V30 8 C 2.539778 -0.563398 0.945390 0
M  V30 9 S 2.387135 0.348363 -0.625026 0
M  V30 10 C 1.545799 1.919211 -0.274372 0
M  V30 11 N 2.579466 2.808177 -0.162099 0
M  V30 12 N 2.097058 3.996463 0.109319 0
M  V30 13 N 0.785410 3.878782 0.170789 0
M  V30 14 N 0.434879 2.626246 -0.057603 0
M  V30 15 C -0.744794 1.855090 -0.077691 0
M  V30 16 C -0.871801 1.120020 1.115768 0
M  V30 17 C -1.904751 0.272984 1.430746 0
M  V30 18 C -2.921594 0.115182 0.505759 0
M  V30 19 Cl -4.253952 -0.954787 0.872036 0
M  V30 20 C -2.818496 0.826017 -0.669500 0
M  V30 21 C -1.779979 1.666078 -0.963551 0
M  V30 22 C 1.645767 -1.570198 1.215945 0
M  V30 23 C 0.621082 -2.120694 0.498491 0
M  V30 24 C 0.311763 -1.708848 -0.893454 0
M  V30 25 H -1.954021 -4.166531 1.326498 0
M  V30 26 H -1.811977 -3.307865 -0.217164 0
M  V30 27 H -0.999213 -4.882113 -0.008638 0
M  V30 28 H 4.438810 -0.556653 3.739406 0
M  V30 29 H -0.123138 1.155602 1.933703 0
M  V30 30 H -1.959054 -0.278726 2.358827 0
M  V30 31 H -3.596629 0.736276 -1.426697 0
M  V30 32 H -1.626068 2.257887 -1.850765 0
M  V30 33 H 1.265828 -1.750966 -1.518692 0
M  V30 34 H -0.000868 -0.663012 -0.926027 0
M  V30 35 H -0.453798 -2.324229 -1.361214 0
M  V30 END ATOM
M  V30 BEGIN BOND
M  V30 1 1 1 2
M  V30 2 1 2 3
M  V30 3 1 3 4
M  V30 4 2 4 5
M  V30 5 1 5 6
M  V30 6 2 6 7
M  V30 7 1 7 8
M  V30 8 1 8 9
M  V30 9 1 9 10
M  V30 10 2 10 11
M  V30 11 1 11 12
M  V30 12 2 12 13
M  V30 13 1 13 14
M  V30 14 1 14 15
M  V30 15 2 15 16
M  V30 16 1 16 17
M  V30 17 2 17 18
M  V30 18 1 18 19
M  V30 19 1 18 20
M  V30 20 2 20 21
M  V30 21 2 8 22
M  V30 22 1 22 23
M  V30 23 1 23 24
M  V30 24 2 23 2
M  V30 25 1 22 4
M  V30 26 1 14 10
M  V30 27 1 21 15
M  V30 28 1 1 25
M  V30 29 1 1 26
M  V30 30 1 1 27
M  V30 31 1 6 28
M  V30 32 1 16 29
M  V30 33 1 17 30
M  V30 34 1 20 31
M  V30 35 1 21 32
M  V30 36 1 24 33
M  V30 37 1 24 34
M  V30 38 1 24 35
M  V30 END BOND
M  V30 END CTAB
M  END
>  <Dataset>  (839) 
ChEMBL_Kinases

>  <Ligand_Instance>  (839) 
nan

>  <PDB_ID>  (839) 
nan

>  <Standardized_SMILES>  (839) 
Cc1sc2ncnc(Sc3nnnn3-c3ccc(Cl)cc3)c2c1C

>  <Name>  (839) 
nan

>  <Pocket>  (839) 
nan

>  <ATP_Site>  (839) 
nan

>  <Peripheral>  (839) 
nan

>  <Num_H_Atoms_ProtBoundConf>  (839) 
nan

>  <Num_Resolved_Atoms>  (839) 
nan

>  <Num_Not_Resolved_Atoms>  (839) 
nan

$$$$
CHEMBL1504256
     RDKit          3D

  0  0  0  0  0  0  0  0  0  0999 V3000
M  V30 BEGIN CTAB
M  V30 COUNTS 42 44 0 0 0
M  V30 BEGIN ATOM
M  V30 1 C 3.833033 -5.440662 -0.269413 0
M  V30 2 O 2.721639 -5.743526 -1.091527 0
M  V30 3 C 1.594738 -4.941342 -0.976125 0
M  V30 4 C 1.450218 -3.867127 -0.130342 0
M  V30 5 C 0.268356 -3.142117 -0.108803 0
M  V30 6 N 0.145502 -2.019799 0.789046 0
M  V30 7 C 0.578633 -0.827467 0.160562 0
M  V30 8 O 0.992618 -0.847164 -1.011294 0
M  V30 9 C 0.562554 0.466537 0.843171 0
M  V30 10 C 0.980142 1.641060 0.249316 0
M  V30 11 C 0.841303 2.687749 1.154675 0
M  V30 12 N 1.077346 4.033075 1.154626 0
M  V30 13 C 0.804597 4.748414 2.272715 0
M  V30 14 C 1.084671 6.185176 2.194112 0
M  V30 15 C 0.295255 4.187150 3.426239 0
M  V30 16 C 0.065373 2.823482 3.399960 0
M  V30 17 C -0.486520 2.139426 4.612381 0
M  V30 18 N 0.338453 2.108348 2.281046 0
M  V30 19 N 0.177701 0.806282 2.091005 0
M  V30 20 C -0.818263 -3.461172 -0.932219 0
M  V30 21 O -1.949478 -2.668708 -0.827313 0
M  V30 22 C -3.070364 -2.956092 -1.641019 0
M  V30 23 C -0.677334 -4.539052 -1.782957 0
M  V30 24 C 0.512579 -5.236234 -1.776611 0
M  V30 25 Cl 0.584174 -6.587267 -2.896159 0
M  V30 26 H 3.693213 -5.721583 0.792823 0
M  V30 27 H 4.736201 -6.013542 -0.604170 0
M  V30 28 H 4.043358 -4.339513 -0.307019 0
M  V30 29 H 2.291442 -3.624710 0.503221 0
M  V30 30 H -0.190716 -1.922344 1.780923 0
M  V30 31 H 1.370544 1.823015 -0.757144 0
M  V30 32 H 2.121886 6.293457 1.797909 0
M  V30 33 H 0.410543 6.715232 1.507149 0
M  V30 34 H 1.048684 6.675801 3.201161 0
M  V30 35 H 0.093147 4.799356 4.295194 0
M  V30 36 H -1.529141 1.805720 4.393105 0
M  V30 37 H 0.078411 1.210066 4.809621 0
M  V30 38 H -0.499443 2.850561 5.447790 0
M  V30 39 H -3.793452 -2.115076 -1.667647 0
M  V30 40 H -3.610703 -3.844176 -1.229698 0
M  V30 41 H -2.795332 -3.150433 -2.702470 0
M  V30 42 H -1.510674 -4.783346 -2.414107 0
M  V30 END ATOM
M  V30 BEGIN BOND
M  V30 1 1 1 2
M  V30 2 1 2 3
M  V30 3 2 3 4
M  V30 4 1 4 5
M  V30 5 1 5 6
M  V30 6 1 6 7
M  V30 7 2 7 8
M  V30 8 1 7 9
M  V30 9 1 9 10
M  V30 10 2 10 11
M  V30 11 1 11 12
M  V30 12 2 12 13
M  V30 13 1 13 14
M  V30 14 1 13 15
M  V30 15 2 15 16
M  V30 16 1 16 17
M  V30 17 1 16 18
M  V30 18 1 18 19
M  V30 19 2 5 20
M  V30 20 1 20 21
M  V30 21 1 21 22
M  V30 22 1 20 23
M  V30 23 2 23 24
M  V30 24 1 24 25
M  V30 25 1 24 3
M  V30 26 2 19 9
M  V30 27 1 18 11
M  V30 28 1 1 26
M  V30 29 1 1 27
M  V30 30 1 1 28
M  V30 31 1 4 29
M  V30 32 1 6 30
M  V30 33 1 10 31
M  V30 34 1 14 32
M  V30 35 1 14 33
M  V30 36 1 14 34
M  V30 37 1 15 35
M  V30 38 1 17 36
M  V30 39 1 17 37
M  V30 40 1 17 38
M  V30 41 1 22 39
M  V30 42 1 22 40
M  V30 43 1 22 41
M  V30 44 1 23 42
M  V30 END BOND
M  V30 END CTAB
M  END
>  <Dataset>  (840) 
ChEMBL_Kinases

>  <Ligand_Instance>  (840) 
nan

>  <PDB_ID>  (840) 
nan

>  <Standardized_SMILES>  (840) 
COc1cc(NC(=O)c2cc3nc(C)cc(C)n3n2)c(OC)cc1Cl

>  <Name>  (840) 
nan

>  <Pocket>  (840) 
nan

>  <ATP_Site>  (840) 
nan

>  <Peripheral>  (840) 
nan

>  <Num_H_Atoms_ProtBoundConf>  (840) 
nan

>  <Num_Resolved_Atoms>  (840) 
nan

>  <Num_Not_Resolved_Atoms>  (840) 
nan

$$$$
CHEMBL1504119
     RDKit          3D

  0  0  0  0  0  0  0  0  0  0999 V3000
M  V30 BEGIN CTAB
M  V30 COUNTS 54 56 0 0 0
M  V30 BEGIN ATOM
M  V30 1 C -2.746369 1.856283 3.137666 0
M  V30 2 O -2.597063 0.634375 2.445130 0
M  V30 3 C -1.459417 0.442503 1.671845 0
M  V30 4 C -0.493224 1.420150 1.579611 0
M  V30 5 C 0.641237 1.281927 0.834430 0
M  V30 6 N 1.636542 2.290591 0.738348 0
M  V30 7 C 2.800070 2.571396 1.484677 0
M  V30 8 O 3.133393 1.868808 2.447479 0
M  V30 9 C 3.626212 3.706150 1.120351 0
M  V30 10 C 4.745195 3.941430 1.889141 0
M  V30 11 C 5.652655 4.985294 1.685742 0
M  V30 12 C 5.355598 5.816917 0.615072 0
M  V30 13 Cl 6.461028 7.162026 0.296764 0
M  V30 14 C 4.232476 5.622184 -0.196786 0
M  V30 15 C 3.386928 4.568298 0.071405 0
M  V30 16 C 0.803418 0.082206 0.143963 0
M  V30 17 O 1.939864 -0.102742 -0.625445 0
M  V30 18 C 2.094578 -1.323135 -1.321739 0
M  V30 19 C -0.180167 -0.875880 0.256557 0
M  V30 20 C -1.327676 -0.752956 1.001737 0
M  V30 21 N -2.347849 -1.720243 1.127546 0
M  V30 22 C -2.446918 -2.995487 0.534586 0
M  V30 23 O -1.536909 -3.398038 -0.227679 0
M  V30 24 C -3.562023 -3.938130 0.732562 0
M  V30 25 N -3.405030 -5.158655 0.008663 0
M  V30 26 C -3.493293 -5.034957 -1.411571 0
M  V30 27 C -2.488299 -6.021865 -2.014615 0
M  V30 28 O -2.831460 -7.268617 -1.541316 0
M  V30 29 C -2.497148 -7.371422 -0.199388 0
M  V30 30 C -2.386361 -6.032124 0.494164 0
M  V30 31 H -3.792968 2.015091 3.479521 0
M  V30 32 H -2.523891 2.741826 2.501869 0
M  V30 33 H -2.028524 1.925696 4.004988 0
M  V30 34 H -0.573844 2.362760 2.095215 0
M  V30 35 H 1.291949 2.833918 -0.082459 0
M  V30 36 H 5.014337 3.308190 2.743977 0
M  V30 37 H 6.509489 5.133045 2.306246 0
M  V30 38 H 4.021005 6.282729 -1.026439 0
M  V30 39 H 2.512229 4.393075 -0.539198 0
M  V30 40 H 3.082877 -1.326534 -1.837075 0
M  V30 41 H 1.319253 -1.350414 -2.117567 0
M  V30 42 H 2.037364 -2.216388 -0.681098 0
M  V30 43 H 0.014819 -1.763571 -0.297840 0
M  V30 44 H -3.174806 -1.527285 1.729958 0
M  V30 45 H -4.540251 -3.468631 0.512479 0
M  V30 46 H -3.583925 -4.201556 1.829162 0
M  V30 47 H -3.334008 -4.005780 -1.751163 0
M  V30 48 H -4.503448 -5.432590 -1.701321 0
M  V30 49 H -2.493240 -5.976678 -3.106880 0
M  V30 50 H -1.448993 -5.782854 -1.687789 0
M  V30 51 H -1.471463 -7.834825 -0.167638 0
M  V30 52 H -3.165557 -8.047682 0.370328 0
M  V30 53 H -2.612667 -6.220200 1.578485 0
M  V30 54 H -1.374768 -5.621082 0.474036 0
M  V30 END ATOM
M  V30 BEGIN BOND
M  V30 1 1 1 2
M  V30 2 1 2 3
M  V30 3 2 3 4
M  V30 4 1 4 5
M  V30 5 1 5 6
M  V30 6 1 6 7
M  V30 7 2 7 8
M  V30 8 1 7 9
M  V30 9 2 9 10
M  V30 10 1 10 11
M  V30 11 2 11 12
M  V30 12 1 12 13
M  V30 13 1 12 14
M  V30 14 2 14 15
M  V30 15 2 5 16
M  V30 16 1 16 17
M  V30 17 1 17 18
M  V30 18 1 16 19
M  V30 19 2 19 20
M  V30 20 1 20 21
M  V30 21 1 21 22
M  V30 22 2 22 23
M  V30 23 1 22 24
M  V30 24 1 24 25
M  V30 25 1 25 26
M  V30 26 1 26 27
M  V30 27 1 27 28
M  V30 28 1 28 29
M  V30 29 1 29 30
M  V30 30 1 20 3
M  V30 31 1 30 25
M  V30 32 1 15 9
M  V30 33 1 1 31
M  V30 34 1 1 32
M  V30 35 1 1 33
M  V30 36 1 4 34
M  V30 37 1 6 35
M  V30 38 1 10 36
M  V30 39 1 11 37
M  V30 40 1 14 38
M  V30 41 1 15 39
M  V30 42 1 18 40
M  V30 43 1 18 41
M  V30 44 1 18 42
M  V30 45 1 19 43
M  V30 46 1 21 44
M  V30 47 1 24 45
M  V30 48 1 24 46
M  V30 49 1 26 47
M  V30 50 1 26 48
M  V30 51 1 27 49
M  V30 52 1 27 50
M  V30 53 1 29 51
M  V30 54 1 29 52
M  V30 55 1 30 53
M  V30 56 1 30 54
M  V30 END BOND
M  V30 END CTAB
M  END
>  <Dataset>  (841) 
ChEMBL_Kinases

>  <Ligand_Instance>  (841) 
nan

>  <PDB_ID>  (841) 
nan

>  <Standardized_SMILES>  (841) 
COc1cc(NC(=O)c2ccc(Cl)cc2)c(OC)cc1NC(=O)CN1CCOCC1

>  <Name>  (841) 
nan

>  <Pocket>  (841) 
nan

>  <ATP_Site>  (841) 
nan

>  <Peripheral>  (841) 
nan

>  <Num_H_Atoms_ProtBoundConf>  (841) 
nan

>  <Num_Resolved_Atoms>  (841) 
nan

>  <Num_Not_Resolved_Atoms>  (841) 
nan

$$$$
CHEMBL1504007
     RDKit          3D

  0  0  0  0  0  0  0  0  0  0999 V3000
M  V30 BEGIN CTAB
M  V30 COUNTS 64 67 0 0 0
M  V30 BEGIN ATOM
M  V30 1 C 3.057971 -2.960087 4.133679 0
M  V30 2 C 1.575881 -2.693529 3.977745 0
M  V30 3 O 1.406819 -1.953279 2.783095 0
M  V30 4 C 2.042512 -0.721645 2.692808 0
M  V30 5 O 2.764978 -0.178855 3.568477 0
M  V30 6 C 1.865839 0.047532 1.449062 0
M  V30 7 C 2.405904 1.286865 1.152109 0
M  V30 8 C 3.267490 2.060701 2.052389 0
M  V30 9 N 2.014064 1.671718 -0.098548 0
M  V30 10 C 2.349875 2.903340 -0.809827 0
M  V30 11 C 1.348620 3.964182 -0.522325 0
M  V30 12 C 0.205255 4.181680 -1.253878 0
M  V30 13 C -0.706351 5.173500 -0.964347 0
M  V30 14 C -0.486213 6.014248 0.117783 0
M  V30 15 C 0.649863 5.834780 0.883751 0
M  V30 16 C 1.524290 4.827721 0.546640 0
M  V30 17 C 1.228931 0.691834 -0.605221 0
M  V30 18 C 0.554832 0.511794 -1.795545 0
M  V30 19 C -0.203973 -0.584847 -2.114593 0
M  V30 20 C -0.298618 -1.592925 -1.159439 0
M  V30 21 O -1.042614 -2.740575 -1.389595 0
M  V30 22 C -1.749289 -2.987912 -2.570759 0
M  V30 23 C -2.472452 -4.290807 -2.579985 0
M  V30 24 O -1.609903 -5.367852 -2.399460 0
M  V30 25 C -3.645380 -4.390428 -1.660229 0
M  V30 26 N -3.331549 -4.187578 -0.264329 0
M  V30 27 N -2.936452 -5.067505 0.639644 0
M  V30 28 C -2.751894 -4.415497 1.818815 0
M  V30 29 C -2.307517 -4.969287 3.145441 0
M  V30 30 N -3.045685 -3.106650 1.613280 0
M  V30 31 C -3.404574 -2.968673 0.322271 0
M  V30 32 C -3.796972 -1.611141 -0.188553 0
M  V30 33 C 0.357633 -1.458344 0.045807 0
M  V30 34 C 1.119369 -0.322055 0.325626 0
M  V30 35 H 3.526300 -2.101184 4.655828 0
M  V30 36 H 3.479097 -3.058579 3.112338 0
M  V30 37 H 3.192853 -3.888145 4.726011 0
M  V30 38 H 1.002174 -3.629122 3.983059 0
M  V30 39 H 1.276346 -2.003918 4.799988 0
M  V30 40 H 4.089541 1.400605 2.452876 0
M  V30 41 H 2.670776 2.489582 2.885904 0
M  V30 42 H 3.813439 2.867101 1.520270 0
M  V30 43 H 3.339634 3.228130 -0.430116 0
M  V30 44 H 2.380993 2.650966 -1.890405 0
M  V30 45 H 0.010874 3.541963 -2.099983 0
M  V30 46 H -1.587739 5.309615 -1.561917 0
M  V30 47 H -1.214936 6.783584 0.324163 0
M  V30 48 H 0.803283 6.499254 1.721649 0
M  V30 49 H 2.380472 4.765676 1.201956 0
M  V30 50 H 0.594289 1.262856 -2.571723 0
M  V30 51 H -0.717434 -0.708174 -3.037019 0
M  V30 52 H -0.966010 -3.053461 -3.381910 0
M  V30 53 H -2.404957 -2.146826 -2.870985 0
M  V30 54 H -2.903327 -4.458264 -3.622027 0
M  V30 55 H -0.962796 -5.467133 -3.134497 0
M  V30 56 H -4.470117 -3.691901 -1.944832 0
M  V30 57 H -4.104526 -5.419624 -1.719155 0
M  V30 58 H -1.336195 -4.485814 3.409538 0
M  V30 59 H -2.081143 -6.033720 2.971807 0
M  V30 60 H -3.072522 -4.821674 3.918454 0
M  V30 61 H -2.945998 -0.919286 -0.182752 0
M  V30 62 H -4.589541 -1.178284 0.453802 0
M  V30 63 H -4.208013 -1.661701 -1.215830 0
M  V30 64 H 0.264962 -2.258326 0.767432 0
M  V30 END ATOM
M  V30 BEGIN BOND
M  V30 1 1 1 2
M  V30 2 1 2 3
M  V30 3 1 3 4
M  V30 4 2 4 5
M  V30 5 1 4 6
M  V30 6 2 6 7
M  V30 7 1 7 8
M  V30 8 1 7 9
M  V30 9 1 9 10
M  V30 10 1 10 11
M  V30 11 2 11 12
M  V30 12 1 12 13
M  V30 13 2 13 14
M  V30 14 1 14 15
M  V30 15 2 15 16
M  V30 16 1 9 17
M  V30 17 2 17 18
M  V30 18 1 18 19
M  V30 19 2 19 20
M  V30 20 1 20 21
M  V30 21 1 21 22
M  V30 22 1 22 23
M  V30 23 1 23 24
M  V30 24 1 23 25
M  V30 25 1 25 26
M  V30 26 1 26 27
M  V30 27 2 27 28
M  V30 28 1 28 29
M  V30 29 1 28 30
M  V30 30 2 30 31
M  V30 31 1 31 32
M  V30 32 1 20 33
M  V30 33 2 33 34
M  V30 34 1 34 6
M  V30 35 1 16 11
M  V30 36 1 34 17
M  V30 37 1 31 26
M  V30 38 1 1 35
M  V30 39 1 1 36
M  V30 40 1 1 37
M  V30 41 1 2 38
M  V30 42 1 2 39
M  V30 43 1 8 40
M  V30 44 1 8 41
M  V30 45 1 8 42
M  V30 46 1 10 43
M  V30 47 1 10 44
M  V30 48 1 12 45
M  V30 49 1 13 46
M  V30 50 1 14 47
M  V30 51 1 15 48
M  V30 52 1 16 49
M  V30 53 1 18 50
M  V30 54 1 19 51
M  V30 55 1 22 52
M  V30 56 1 22 53
M  V30 57 1 23 54
M  V30 58 1 24 55
M  V30 59 1 25 56
M  V30 60 1 25 57
M  V30 61 1 29 58
M  V30 62 1 29 59
M  V30 63 1 29 60
M  V30 64 1 32 61
M  V30 65 1 32 62
M  V30 66 1 32 63
M  V30 67 1 33 64
M  V30 END BOND
M  V30 END CTAB
M  END
>  <Dataset>  (842) 
ChEMBL_Kinases

>  <Ligand_Instance>  (842) 
nan

>  <PDB_ID>  (842) 
nan

>  <Standardized_SMILES>  (842) 
CCOC(=O)c1c(C)n(Cc2ccccc2)c2ccc(OCC(O)Cn3nc(C)nc3C)cc12

>  <Name>  (842) 
nan

>  <Pocket>  (842) 
nan

>  <ATP_Site>  (842) 
nan

>  <Peripheral>  (842) 
nan

>  <Num_H_Atoms_ProtBoundConf>  (842) 
nan

>  <Num_Resolved_Atoms>  (842) 
nan

>  <Num_Not_Resolved_Atoms>  (842) 
nan

$$$$
CHEMBL1503589
     RDKit          3D

  0  0  0  0  0  0  0  0  0  0999 V3000
M  V30 BEGIN CTAB
M  V30 COUNTS 49 52 0 0 0
M  V30 BEGIN ATOM
M  V30 1 C 0.788445 -2.004070 0.478836 0
M  V30 2 C 2.202528 -1.821575 0.963469 0
M  V30 3 C 3.093193 -2.715364 0.148062 0
M  V30 4 N 2.610775 -0.431729 0.951368 0
M  V30 5 C 3.720278 0.121032 1.471898 0
M  V30 6 C 4.796250 -0.406251 2.155759 0
M  V30 7 C 5.852835 0.361098 2.609920 0
M  V30 8 C 5.807217 1.722716 2.354736 0
M  V30 9 C 4.769678 2.318218 1.680978 0
M  V30 10 C 3.753787 1.484467 1.260473 0
M  V30 11 C 2.585916 1.766619 0.567000 0
M  V30 12 N 2.039116 2.902495 0.075823 0
M  V30 13 N 0.874881 2.898734 -0.565374 0
M  V30 14 C 0.195126 1.733409 -0.745253 0
M  V30 15 S -1.356391 1.887551 -1.616959 0
M  V30 16 C -2.719753 2.172085 -0.420256 0
M  V30 17 C -2.927314 0.959504 0.416135 0
M  V30 18 O -2.209914 0.806234 1.437812 0
M  V30 19 N -3.944210 0.027726 0.002095 0
M  V30 20 C -4.334679 -1.199454 0.615609 0
M  V30 21 C -5.286275 -1.321933 1.631056 0
M  V30 22 C -5.618232 -2.543158 2.170806 0
M  V30 23 C -4.994710 -3.670607 1.696011 0
M  V30 24 C -4.051710 -3.620152 0.700562 0
M  V30 25 C -3.750899 -2.377405 0.189634 0
M  V30 26 C -2.754781 -2.327160 -0.871321 0
M  V30 27 O -2.353555 -1.297319 -1.461794 0
M  V30 28 O -2.116646 -3.447150 -1.365393 0
M  V30 29 N 0.728601 0.599570 -0.261685 0
M  V30 30 C 1.910481 0.574556 0.394134 0
M  V30 31 H 0.664218 -1.747973 -0.592913 0
M  V30 32 H 0.594740 -3.107605 0.522205 0
M  V30 33 H 0.020578 -1.544054 1.137930 0
M  V30 34 H 2.196400 -2.215183 2.023597 0
M  V30 35 H 2.569250 -3.708210 0.108295 0
M  V30 36 H 3.091126 -2.347909 -0.890586 0
M  V30 37 H 4.099279 -2.869953 0.569372 0
M  V30 38 H 4.837946 -1.459405 2.357739 0
M  V30 39 H 6.675729 -0.104890 3.143098 0
M  V30 40 H 6.616958 2.359483 2.693739 0
M  V30 41 H 4.726921 3.394093 1.474048 0
M  V30 42 H -3.643667 2.457249 -0.919995 0
M  V30 43 H -2.383969 3.025683 0.218186 0
M  V30 44 H -4.536422 0.163011 -0.843863 0
M  V30 45 H -5.751775 -0.399037 1.973965 0
M  V30 46 H -6.368843 -2.537203 2.956912 0
M  V30 47 H -5.277831 -4.608362 2.140487 0
M  V30 48 H -3.597592 -4.539450 0.370116 0
M  V30 49 H -1.250184 -3.470425 -1.860872 0
M  V30 END ATOM
M  V30 BEGIN BOND
M  V30 1 1 1 2
M  V30 2 1 2 3
M  V30 3 1 2 4
M  V30 4 1 4 5
M  V30 5 2 5 6
M  V30 6 1 6 7
M  V30 7 2 7 8
M  V30 8 1 8 9
M  V30 9 2 9 10
M  V30 10 1 10 11
M  V30 11 2 11 12
M  V30 12 1 12 13
M  V30 13 2 13 14
M  V30 14 1 14 15
M  V30 15 1 15 16
M  V30 16 1 16 17
M  V30 17 2 17 18
M  V30 18 1 17 19
M  V30 19 1 19 20
M  V30 20 2 20 21
M  V30 21 1 21 22
M  V30 22 2 22 23
M  V30 23 1 23 24
M  V30 24 2 24 25
M  V30 25 1 25 26
M  V30 26 2 26 27
M  V30 27 1 26 28
M  V30 28 1 14 29
M  V30 29 2 29 30
M  V30 30 1 30 4
M  V30 31 1 10 5
M  V30 32 1 30 11
M  V30 33 1 25 20
M  V30 34 1 1 31
M  V30 35 1 1 32
M  V30 36 1 1 33
M  V30 37 1 2 34
M  V30 38 1 3 35
M  V30 39 1 3 36
M  V30 40 1 3 37
M  V30 41 1 6 38
M  V30 42 1 7 39
M  V30 43 1 8 40
M  V30 44 1 9 41
M  V30 45 1 16 42
M  V30 46 1 16 43
M  V30 47 1 19 44
M  V30 48 1 21 45
M  V30 49 1 22 46
M  V30 50 1 23 47
M  V30 51 1 24 48
M  V30 52 1 28 49
M  V30 END BOND
M  V30 END CTAB
M  END
>  <Dataset>  (843) 
ChEMBL_Kinases

>  <Ligand_Instance>  (843) 
nan

>  <PDB_ID>  (843) 
nan

>  <Standardized_SMILES>  (843) 
CC(C)n1c2ccccc2c2nnc(SCC(=O)Nc3ccccc3C(=O)O)nc21

>  <Name>  (843) 
nan

>  <Pocket>  (843) 
nan

>  <ATP_Site>  (843) 
nan

>  <Peripheral>  (843) 
nan

>  <Num_H_Atoms_ProtBoundConf>  (843) 
nan

>  <Num_Resolved_Atoms>  (843) 
nan

>  <Num_Not_Resolved_Atoms>  (843) 
nan

$$$$
CHEMBL1503340
     RDKit          3D

  0  0  0  0  0  0  0  0  0  0999 V3000
M  V30 BEGIN CTAB
M  V30 COUNTS 46 47 0 0 0
M  V30 BEGIN ATOM
M  V30 1 C -1.858144 -4.324419 0.092797 0
M  V30 2 C -0.850222 -3.356555 0.600382 0
M  V30 3 O 0.266807 -3.902523 0.890502 0
M  V30 4 O -0.889230 -1.967849 0.820751 0
M  V30 5 C 0.317919 -1.443527 1.321813 0
M  V30 6 C 1.403662 -0.952635 0.634818 0
M  V30 7 S 1.431104 -0.910730 -1.123060 0
M  V30 8 O 2.849885 -0.998531 -1.624601 0
M  V30 9 O 0.671196 -2.075209 -1.691145 0
M  V30 10 C 0.774253 0.612251 -1.681028 0
M  V30 11 C -0.562937 0.817657 -1.953241 0
M  V30 12 C -1.087168 2.010302 -2.391745 0
M  V30 13 C -0.242193 3.077875 -2.576951 0
M  V30 14 C -0.668624 4.435248 -3.049167 0
M  V30 15 C 1.121862 2.948764 -2.323259 0
M  V30 16 C 1.592823 1.711749 -1.879921 0
M  V30 17 C 2.304259 -0.571555 1.603504 0
M  V30 18 C 3.623095 0.017008 1.225116 0
M  V30 19 N 1.757051 -0.833434 2.802874 0
M  V30 20 N 0.556374 -1.361037 2.663407 0
M  V30 21 C -0.246454 -1.734880 3.811933 0
M  V30 22 C -0.099563 -0.697766 4.925521 0
M  V30 23 C 0.161100 -3.064970 4.399505 0
M  V30 24 C -1.709617 -1.817695 3.472948 0
M  V30 25 H -2.278328 -4.934355 0.915883 0
M  V30 26 H -2.666248 -3.760024 -0.429589 0
M  V30 27 H -1.377853 -4.993363 -0.650188 0
M  V30 28 H -1.250192 -0.028847 -1.809112 0
M  V30 29 H -2.130371 2.156268 -2.599818 0
M  V30 30 H -0.570230 5.201815 -2.253003 0
M  V30 31 H -0.132799 4.706601 -3.971008 0
M  V30 32 H -1.758580 4.328795 -3.283923 0
M  V30 33 H 1.809074 3.779455 -2.462664 0
M  V30 34 H 2.648074 1.583666 -1.675264 0
M  V30 35 H 3.563947 1.088682 1.028445 0
M  V30 36 H 4.066279 -0.517972 0.366015 0
M  V30 37 H 4.323656 -0.203752 2.081412 0
M  V30 38 H -0.067068 0.326705 4.510921 0
M  V30 39 H 0.826659 -0.914952 5.502866 0
M  V30 40 H -1.009923 -0.810543 5.577975 0
M  V30 41 H -0.076971 -3.921708 3.730617 0
M  V30 42 H 1.188806 -3.079074 4.803889 0
M  V30 43 H -0.517311 -3.196972 5.291533 0
M  V30 44 H -2.009554 -2.854482 3.210706 0
M  V30 45 H -2.011883 -1.086169 2.673968 0
M  V30 46 H -2.298125 -1.533783 4.356483 0
M  V30 END ATOM
M  V30 BEGIN BOND
M  V30 1 1 1 2
M  V30 2 2 2 3
M  V30 3 1 2 4
M  V30 4 1 4 5
M  V30 5 2 5 6
M  V30 6 1 6 7
M  V30 7 2 7 8
M  V30 8 2 7 9
M  V30 9 1 7 10
M  V30 10 2 10 11
M  V30 11 1 11 12
M  V30 12 2 12 13
M  V30 13 1 13 14
M  V30 14 1 13 15
M  V30 15 2 15 16
M  V30 16 1 6 17
M  V30 17 1 17 18
M  V30 18 2 17 19
M  V30 19 1 19 20
M  V30 20 1 20 21
M  V30 21 1 21 22
M  V30 22 1 21 23
M  V30 23 1 21 24
M  V30 24 1 20 5
M  V30 25 1 16 10
M  V30 26 1 1 25
M  V30 27 1 1 26
M  V30 28 1 1 27
M  V30 29 1 11 28
M  V30 30 1 12 29
M  V30 31 1 14 30
M  V30 32 1 14 31
M  V30 33 1 14 32
M  V30 34 1 15 33
M  V30 35 1 16 34
M  V30 36 1 18 35
M  V30 37 1 18 36
M  V30 38 1 18 37
M  V30 39 1 22 38
M  V30 40 1 22 39
M  V30 41 1 22 40
M  V30 42 1 23 41
M  V30 43 1 23 42
M  V30 44 1 23 43
M  V30 45 1 24 44
M  V30 46 1 24 45
M  V30 47 1 24 46
M  V30 END BOND
M  V30 END CTAB
M  END
>  <Dataset>  (844) 
ChEMBL_Kinases

>  <Ligand_Instance>  (844) 
nan

>  <PDB_ID>  (844) 
nan

>  <Standardized_SMILES>  (844) 
CC(=O)Oc1c(S(=O)(=O)c2ccc(C)cc2)c(C)nn1C(C)(C)C

>  <Name>  (844) 
nan

>  <Pocket>  (844) 
nan

>  <ATP_Site>  (844) 
nan

>  <Peripheral>  (844) 
nan

>  <Num_H_Atoms_ProtBoundConf>  (844) 
nan

>  <Num_Resolved_Atoms>  (844) 
nan

>  <Num_Not_Resolved_Atoms>  (844) 
nan

$$$$
CHEMBL1503264
     RDKit          3D

  0  0  0  0  0  0  0  0  0  0999 V3000
M  V30 BEGIN CTAB
M  V30 COUNTS 42 43 0 0 0
M  V30 BEGIN ATOM
M  V30 1 C 2.904544 -7.282694 -0.576211 0
M  V30 2 O 3.083655 -5.893148 -0.781226 0
M  V30 3 C 3.878927 -5.401777 -1.806248 0
M  V30 4 O 4.430875 -6.245662 -2.541602 0
M  V30 5 C 4.058883 -3.937872 -2.010850 0
M  V30 6 N 3.298750 -3.239363 -1.007477 0
M  V30 7 C 3.297169 -1.820118 -0.976715 0
M  V30 8 O 3.979647 -1.249401 -1.853359 0
M  V30 9 C 2.565547 -1.007439 -0.008136 0
M  V30 10 C 2.674929 0.361808 -0.122747 0
M  V30 11 C 1.965570 1.084534 0.814763 0
M  V30 12 C 1.165934 0.567989 1.844647 0
M  V30 13 N 0.554273 1.511883 2.685518 0
M  V30 14 S -0.392814 2.919071 2.686580 0
M  V30 15 O -0.504463 3.424931 4.102641 0
M  V30 16 O 0.268836 4.049673 1.923733 0
M  V30 17 C -1.978161 2.734009 1.976831 0
M  V30 18 C -3.081716 2.917415 2.823698 0
M  V30 19 C -4.394446 2.807752 2.480713 0
M  V30 20 N -5.438010 3.015705 3.423680 0 CHG=1 VAL=4
M  V30 21 O -6.630455 2.907519 3.076814 0
M  V30 22 O -5.116004 3.336875 4.719883 0 CHG=-1 VAL=1
M  V30 23 C -4.696852 2.487626 1.187152 0
M  V30 24 C -3.664229 2.294470 0.304844 0
M  V30 25 C -2.350475 2.416593 0.697967 0
M  V30 26 Cl -1.026411 2.191856 -0.418763 0
M  V30 27 C 1.094423 -0.829994 1.909924 0
M  V30 28 C 1.794566 -1.569888 0.983820 0
M  V30 29 H 3.202547 -7.548156 0.478966 0
M  V30 30 H 1.828493 -7.530887 -0.677456 0
M  V30 31 H 3.477228 -7.921701 -1.252209 0
M  V30 32 H 3.788910 -3.724425 -3.041913 0
M  V30 33 H 5.147880 -3.737411 -1.913140 0
M  V30 34 H 2.738370 -3.748412 -0.288489 0
M  V30 35 H 3.262107 0.840552 -0.876993 0
M  V30 36 H 2.063040 2.171798 0.709913 0
M  V30 37 H 0.850282 1.120054 3.635027 0
M  V30 38 H -2.902080 3.177174 3.878910 0
M  V30 39 H -5.700119 2.374612 0.805600 0
M  V30 40 H -3.814293 2.034498 -0.753698 0
M  V30 41 H 0.476811 -1.199166 2.706545 0
M  V30 42 H 1.703222 -2.653428 1.080776 0
M  V30 END ATOM
M  V30 BEGIN BOND
M  V30 1 1 1 2
M  V30 2 1 2 3
M  V30 3 2 3 4
M  V30 4 1 3 5
M  V30 5 1 5 6
M  V30 6 1 6 7
M  V30 7 2 7 8
M  V30 8 1 7 9
M  V30 9 2 9 10
M  V30 10 1 10 11
M  V30 11 2 11 12
M  V30 12 1 12 13
M  V30 13 1 13 14
M  V30 14 2 14 15
M  V30 15 2 14 16
M  V30 16 1 14 17
M  V30 17 2 17 18
M  V30 18 1 18 19
M  V30 19 1 19 20
M  V30 20 2 20 21
M  V30 21 1 20 22
M  V30 22 2 19 23
M  V30 23 1 23 24
M  V30 24 2 24 25
M  V30 25 1 25 26
M  V30 26 1 12 27
M  V30 27 2 27 28
M  V30 28 1 28 9
M  V30 29 1 25 17
M  V30 30 1 1 29
M  V30 31 1 1 30
M  V30 32 1 1 31
M  V30 33 1 5 32
M  V30 34 1 5 33
M  V30 35 1 6 34
M  V30 36 1 10 35
M  V30 37 1 11 36
M  V30 38 1 13 37
M  V30 39 1 18 38
M  V30 40 1 23 39
M  V30 41 1 24 40
M  V30 42 1 27 41
M  V30 43 1 28 42
M  V30 END BOND
M  V30 END CTAB
M  END
>  <Dataset>  (845) 
ChEMBL_Kinases

>  <Ligand_Instance>  (845) 
nan

>  <PDB_ID>  (845) 
nan

>  <Standardized_SMILES>  (845) 
COC(=O)CNC(=O)c1ccc(NS(=O)(=O)c2cc([N+](=O)[O-])ccc2Cl)cc1

>  <Name>  (845) 
nan

>  <Pocket>  (845) 
nan

>  <ATP_Site>  (845) 
nan

>  <Peripheral>  (845) 
nan

>  <Num_H_Atoms_ProtBoundConf>  (845) 
nan

>  <Num_Resolved_Atoms>  (845) 
nan

>  <Num_Not_Resolved_Atoms>  (845) 
nan

$$$$
CHEMBL1502972
     RDKit          3D

  0  0  0  0  0  0  0  0  0  0999 V3000
M  V30 BEGIN CTAB
M  V30 COUNTS 54 55 0 0 0
M  V30 BEGIN ATOM
M  V30 1 C 1.545168 -6.048643 2.230570 0
M  V30 2 C 1.511456 -4.628413 2.817751 0
M  V30 3 C 0.240030 -4.531674 3.579641 0
M  V30 4 C 1.531884 -3.741119 1.574425 0
M  V30 5 C 1.504155 -2.281406 1.911875 0
M  V30 6 N 1.521644 -1.411931 0.778556 0
M  V30 7 C 1.490396 -0.060599 1.302845 0
M  V30 8 C 1.445218 1.010562 0.245259 0
M  V30 9 N 0.509345 0.674722 -0.771650 0
M  V30 10 C -0.116510 1.785084 -1.395581 0
M  V30 11 C -0.883867 2.680240 -0.527523 0
M  V30 12 C -0.502697 3.825005 0.134193 0
M  V30 13 C -1.386205 4.533237 0.921112 0
M  V30 14 C -2.696248 4.134910 1.087710 0
M  V30 15 C -3.101964 2.990036 0.433922 0
M  V30 16 C -4.515486 2.569236 0.619960 0
M  V30 17 F -4.896921 1.770021 -0.451553 0
M  V30 18 F -4.560099 1.761086 1.739444 0
M  V30 19 F -5.359432 3.655632 0.729163 0
M  V30 20 C -2.214311 2.285472 -0.351727 0
M  V30 21 C -0.337766 -0.365019 -0.296490 0
M  V30 22 C 0.494142 -1.655215 -0.204393 0
M  V30 23 C 1.065117 -1.876525 -1.587156 0
M  V30 24 C 0.011037 -2.134999 -2.632044 0
M  V30 25 O 0.561285 -2.345174 -3.894945 0
M  V30 26 H 0.711620 -6.071247 1.483230 0
M  V30 27 H 2.470991 -6.141822 1.635091 0
M  V30 28 H 1.407983 -6.824554 2.980604 0
M  V30 29 H 2.391527 -4.491430 3.452130 0
M  V30 30 H 0.205366 -5.366816 4.292940 0
M  V30 31 H -0.614859 -4.679283 2.858435 0
M  V30 32 H 0.054533 -3.586663 4.094183 0
M  V30 33 H 2.487759 -4.006503 1.074346 0
M  V30 34 H 0.726705 -4.095307 0.926440 0
M  V30 35 H 2.453427 -2.070386 2.466442 0
M  V30 36 H 0.700522 -2.017037 2.628566 0
M  V30 37 H 0.740512 0.074368 2.108977 0
M  V30 38 H 2.481446 0.068877 1.827477 0
M  V30 39 H 1.102309 1.941813 0.775125 0
M  V30 40 H 2.445307 1.239761 -0.159593 0
M  V30 41 H 0.708891 2.399192 -1.856115 0
M  V30 42 H -0.736951 1.453136 -2.253013 0
M  V30 43 H 0.529356 4.099541 -0.029932 0
M  V30 44 H -1.004233 5.421841 1.405904 0
M  V30 45 H -3.370935 4.705427 1.709124 0
M  V30 46 H -2.648813 1.404865 -0.813495 0
M  V30 47 H -1.213781 -0.612154 -0.913385 0
M  V30 48 H -0.738274 -0.132822 0.717463 0
M  V30 49 H -0.213416 -2.446099 0.032568 0
M  V30 50 H 1.859275 -2.653766 -1.589384 0
M  V30 51 H 1.602259 -0.948001 -1.943306 0
M  V30 52 H -0.680058 -2.932602 -2.304032 0
M  V30 53 H -0.607085 -1.198530 -2.736030 0
M  V30 54 H -0.219796 -2.651775 -4.455428 0
M  V30 END ATOM
M  V30 BEGIN BOND
M  V30 1 1 1 2
M  V30 2 1 2 3
M  V30 3 1 2 4
M  V30 4 1 4 5
M  V30 5 1 5 6
M  V30 6 1 6 7
M  V30 7 1 7 8
M  V30 8 1 8 9
M  V30 9 1 9 10
M  V30 10 1 10 11
M  V30 11 2 11 12
M  V30 12 1 12 13
M  V30 13 2 13 14
M  V30 14 1 14 15
M  V30 15 1 15 16
M  V30 16 1 16 17
M  V30 17 1 16 18
M  V30 18 1 16 19
M  V30 19 2 15 20
M  V30 20 1 9 21
M  V30 21 1 21 22
M  V30 22 1 22 23
M  V30 23 1 23 24
M  V30 24 1 24 25
M  V30 25 1 22 6
M  V30 26 1 20 11
M  V30 27 1 1 26
M  V30 28 1 1 27
M  V30 29 1 1 28
M  V30 30 1 2 29
M  V30 31 1 3 30
M  V30 32 1 3 31
M  V30 33 1 3 32
M  V30 34 1 4 33
M  V30 35 1 4 34
M  V30 36 1 5 35
M  V30 37 1 5 36
M  V30 38 1 7 37
M  V30 39 1 7 38
M  V30 40 1 8 39
M  V30 41 1 8 40
M  V30 42 1 10 41
M  V30 43 1 10 42
M  V30 44 1 12 43
M  V30 45 1 13 44
M  V30 46 1 14 45
M  V30 47 1 20 46
M  V30 48 1 21 47
M  V30 49 1 21 48
M  V30 50 1 22 49
M  V30 51 1 23 50
M  V30 52 1 23 51
M  V30 53 1 24 52
M  V30 54 1 24 53
M  V30 55 1 25 54
M  V30 END BOND
M  V30 END CTAB
M  END
>  <Dataset>  (846) 
ChEMBL_Kinases

>  <Ligand_Instance>  (846) 
nan

>  <PDB_ID>  (846) 
nan

>  <Standardized_SMILES>  (846) 
CC(C)CCN1CCN(Cc2cccc(C(F)(F)F)c2)CC1CCO

>  <Name>  (846) 
nan

>  <Pocket>  (846) 
nan

>  <ATP_Site>  (846) 
nan

>  <Peripheral>  (846) 
nan

>  <Num_H_Atoms_ProtBoundConf>  (846) 
nan

>  <Num_Resolved_Atoms>  (846) 
nan

>  <Num_Not_Resolved_Atoms>  (846) 
nan

$$$$
CHEMBL1502894
     RDKit          3D

  0  0  0  0  0  0  0  0  0  0999 V3000
M  V30 BEGIN CTAB
M  V30 COUNTS 48 51 0 0 0
M  V30 BEGIN ATOM
M  V30 1 C 0.018501 -5.503669 5.093051 0
M  V30 2 C 1.222482 -4.803126 4.471578 0
M  V30 3 C 0.760269 -4.099015 3.233659 0
M  V30 4 C 0.310070 -2.794388 3.303315 0
M  V30 5 C -0.112182 -2.163972 2.146970 0
M  V30 6 C -0.088624 -2.823677 0.924927 0
M  V30 7 N -0.559989 -2.019547 -0.152940 0
M  V30 8 C 0.153528 -1.102190 -0.818106 0
M  V30 9 S 1.832203 -0.939004 -0.241055 0
M  V30 10 C 2.626107 0.357065 -1.269347 0
M  V30 11 C 1.963081 1.678131 -0.983276 0
M  V30 12 O 1.324665 0.891470 -0.217166 0
M  V30 13 N 2.187110 2.976350 -1.496231 0
M  V30 14 C 1.255838 3.836168 -0.859134 0
M  V30 15 C 1.327013 4.572284 0.305282 0
M  V30 16 C 0.092113 5.195372 0.368398 0
M  V30 17 C -0.277265 6.110013 1.491542 0
M  V30 18 N -0.673220 4.845751 -0.705644 0
M  V30 19 N 0.076017 4.008447 -1.439054 0
M  V30 20 N -0.396875 -0.386354 -1.834069 0
M  V30 21 C -1.676186 -0.589602 -2.190414 0
M  V30 22 N -2.476833 -0.054293 -3.125007 0
M  V30 23 N -3.684080 -0.630446 -3.048242 0
M  V30 24 C -3.711109 -1.540016 -2.083084 0
M  V30 25 C -2.469497 -1.580450 -1.482106 0
M  V30 26 C -1.850091 -2.271829 -0.461192 0
M  V30 27 O -2.660200 -3.213752 0.187096 0
M  V30 28 C 0.360039 -4.127083 0.848342 0
M  V30 29 C 0.786262 -4.765018 2.013196 0
M  V30 30 H -0.012987 -5.314942 6.205144 0
M  V30 31 H -0.927442 -5.009062 4.725778 0
M  V30 32 H -0.066919 -6.555324 4.821942 0
M  V30 33 H 1.524717 -3.999931 5.191827 0
M  V30 34 H 2.048406 -5.501891 4.246805 0
M  V30 35 H 0.318771 -2.336810 4.294839 0
M  V30 36 H -0.445415 -1.139806 2.317091 0
M  V30 37 H 2.567989 0.094232 -2.341914 0
M  V30 38 H 3.682780 0.398199 -0.989952 0
M  V30 39 H 2.961961 2.958000 -2.193293 0
M  V30 40 H 2.181473 4.591499 0.943031 0
M  V30 41 H -1.218384 6.662486 1.290028 0
M  V30 42 H 0.581057 6.799986 1.667587 0
M  V30 43 H -0.474862 5.514230 2.430969 0
M  V30 44 H -1.647779 5.224125 -0.827786 0
M  V30 45 H -4.526540 -2.189709 -1.750546 0
M  V30 46 H -2.944574 -4.061423 -0.303384 0
M  V30 47 H 0.347922 -4.571412 -0.137372 0
M  V30 48 H 1.134701 -5.793280 1.922643 0
M  V30 END ATOM
M  V30 BEGIN BOND
M  V30 1 1 1 2
M  V30 2 1 2 3
M  V30 3 2 3 4
M  V30 4 1 4 5
M  V30 5 2 5 6
M  V30 6 1 6 7
M  V30 7 1 7 8
M  V30 8 1 8 9
M  V30 9 1 9 10
M  V30 10 1 10 11
M  V30 11 2 11 12
M  V30 12 1 11 13
M  V30 13 1 13 14
M  V30 14 1 14 15
M  V30 15 2 15 16
M  V30 16 1 16 17
M  V30 17 1 16 18
M  V30 18 1 18 19
M  V30 19 2 8 20
M  V30 20 1 20 21
M  V30 21 2 21 22
M  V30 22 1 22 23
M  V30 23 2 23 24
M  V30 24 1 24 25
M  V30 25 2 25 26
M  V30 26 1 26 27
M  V30 27 1 6 28
M  V30 28 2 28 29
M  V30 29 1 29 3
M  V30 30 1 26 7
M  V30 31 2 19 14
M  V30 32 1 25 21
M  V30 33 1 1 30
M  V30 34 1 1 31
M  V30 35 1 1 32
M  V30 36 1 2 33
M  V30 37 1 2 34
M  V30 38 1 4 35
M  V30 39 1 5 36
M  V30 40 1 10 37
M  V30 41 1 10 38
M  V30 42 1 13 39
M  V30 43 1 15 40
M  V30 44 1 17 41
M  V30 45 1 17 42
M  V30 46 1 17 43
M  V30 47 1 18 44
M  V30 48 1 24 45
M  V30 49 1 27 46
M  V30 50 1 28 47
M  V30 51 1 29 48
M  V30 END BOND
M  V30 END CTAB
M  END
>  <Dataset>  (847) 
ChEMBL_Kinases

>  <Ligand_Instance>  (847) 
nan

>  <PDB_ID>  (847) 
nan

>  <Standardized_SMILES>  (847) 
CCc1ccc(-n2c(SCC(=O)Nc3cc(C)[nH]n3)nc3nncc-3c2O)cc1

>  <Name>  (847) 
nan

>  <Pocket>  (847) 
nan

>  <ATP_Site>  (847) 
nan

>  <Peripheral>  (847) 
nan

>  <Num_H_Atoms_ProtBoundConf>  (847) 
nan

>  <Num_Resolved_Atoms>  (847) 
nan

>  <Num_Not_Resolved_Atoms>  (847) 
nan

$$$$
CHEMBL1500854
     RDKit          3D

  0  0  0  0  0  0  0  0  0  0999 V3000
M  V30 BEGIN CTAB
M  V30 COUNTS 50 53 0 0 0
M  V30 BEGIN ATOM
M  V30 1 C 0.245224 -2.395595 4.893053 0
M  V30 2 C 1.383425 -2.512116 3.912285 0
M  V30 3 N 1.816218 -1.228868 3.464735 0
M  V30 4 C 2.446218 -0.470604 4.529582 0
M  V30 5 C 3.760549 -1.057406 4.958882 0
M  V30 6 C 1.714422 -0.638123 2.173422 0
M  V30 7 N 2.940901 -0.333563 1.653200 0
M  V30 8 C 3.070618 0.232515 0.430375 0
M  V30 9 N 4.322505 0.564610 -0.142621 0
M  V30 10 C 1.903535 0.484328 -0.258633 0
M  V30 11 C 1.941657 1.057843 -1.511364 0
M  V30 12 N 3.165440 1.409950 -2.139849 0
M  V30 13 N 0.836235 1.313259 -2.204292 0
M  V30 14 C -0.403433 1.029142 -1.730776 0
M  V30 15 C -0.527222 0.451847 -0.479513 0
M  V30 16 C 0.636304 0.197719 0.217829 0
M  V30 17 C 0.557856 -0.378325 1.468375 0
M  V30 18 C -0.684659 -0.728107 2.095726 0
M  V30 19 N -1.680973 -1.016111 2.617261 0
M  V30 20 C -1.957038 0.242310 -0.189891 0
M  V30 21 C -2.646439 0.778579 -1.431956 0
M  V30 22 C -3.383176 -0.298555 -2.154536 0
M  V30 23 C -4.775195 -0.400517 -2.178899 0
M  V30 24 C -5.395810 -1.428462 -2.871281 0
M  V30 25 C -4.615369 -2.370291 -3.550448 0
M  V30 26 C -3.244382 -2.262120 -3.521114 0
M  V30 27 C -2.623865 -1.248154 -2.838610 0
M  V30 28 O -1.647639 1.227115 -2.314905 0
M  V30 29 H 0.427179 -2.819964 5.876960 0
M  V30 30 H -0.676820 -2.919209 4.504080 0
M  V30 31 H -0.031808 -1.318468 4.991455 0
M  V30 32 H 1.149043 -3.211251 3.077628 0
M  V30 33 H 2.211815 -3.005230 4.460282 0
M  V30 34 H 1.774754 -0.466578 5.395799 0
M  V30 35 H 2.627776 0.593507 4.234078 0
M  V30 36 H 4.356135 -0.241304 5.414213 0
M  V30 37 H 3.554741 -1.791357 5.765994 0
M  V30 38 H 4.371884 -1.471207 4.137350 0
M  V30 39 H 4.970344 1.338246 0.068722 0
M  V30 40 H 4.682434 -0.058044 -0.910915 0
M  V30 41 H 3.762409 1.063433 -2.942714 0
M  V30 42 H 3.634291 2.253449 -1.701930 0
M  V30 43 H -2.268089 -0.807470 -0.097543 0
M  V30 44 H -2.319572 0.863028 0.661665 0
M  V30 45 H -3.340915 1.620570 -1.185043 0
M  V30 46 H -5.330049 0.372314 -1.621873 0
M  V30 47 H -6.496952 -1.464014 -2.860045 0
M  V30 48 H -5.132421 -3.178045 -4.091509 0
M  V30 49 H -2.639482 -3.002848 -4.053870 0
M  V30 50 H -1.541082 -1.213291 -2.849559 0
M  V30 END ATOM
M  V30 BEGIN BOND
M  V30 1 1 1 2
M  V30 2 1 2 3
M  V30 3 1 3 4
M  V30 4 1 4 5
M  V30 5 1 3 6
M  V30 6 2 6 7
M  V30 7 1 7 8
M  V30 8 1 8 9
M  V30 9 2 8 10
M  V30 10 1 10 11
M  V30 11 1 11 12
M  V30 12 2 11 13
M  V30 13 1 13 14
M  V30 14 2 14 15
M  V30 15 1 15 16
M  V30 16 2 16 17
M  V30 17 1 17 18
M  V30 18 3 18 19
M  V30 19 1 15 20
M  V30 20 1 20 21
M  V30 21 1 21 22
M  V30 22 2 22 23
M  V30 23 1 23 24
M  V30 24 2 24 25
M  V30 25 1 25 26
M  V30 26 2 26 27
M  V30 27 1 21 28
M  V30 28 1 17 6
M  V30 29 1 27 22
M  V30 30 1 16 10
M  V30 31 1 28 14
M  V30 32 1 1 29
M  V30 33 1 1 30
M  V30 34 1 1 31
M  V30 35 1 2 32
M  V30 36 1 2 33
M  V30 37 1 4 34
M  V30 38 1 4 35
M  V30 39 1 5 36
M  V30 40 1 5 37
M  V30 41 1 5 38
M  V30 42 1 9 39
M  V30 43 1 9 40
M  V30 44 1 12 41
M  V30 45 1 12 42
M  V30 46 1 20 43
M  V30 47 1 20 44
M  V30 48 1 21 45
M  V30 49 1 23 46
M  V30 50 1 24 47
M  V30 51 1 25 48
M  V30 52 1 26 49
M  V30 53 1 27 50
M  V30 END BOND
M  V30 END CTAB
M  END
>  <Dataset>  (848) 
ChEMBL_Kinases

>  <Ligand_Instance>  (848) 
nan

>  <PDB_ID>  (848) 
nan

>  <Standardized_SMILES>  (848) 
CCN(CC)c1nc(N)c2c(N)nc3c(c2c1C#N)CC(c1ccccc1)O3

>  <Name>  (848) 
nan

>  <Pocket>  (848) 
nan

>  <ATP_Site>  (848) 
nan

>  <Peripheral>  (848) 
nan

>  <Num_H_Atoms_ProtBoundConf>  (848) 
nan

>  <Num_Resolved_Atoms>  (848) 
nan

>  <Num_Not_Resolved_Atoms>  (848) 
nan

$$$$
CHEMBL1501434
     RDKit          3D

  0  0  0  0  0  0  0  0  0  0999 V3000
M  V30 BEGIN CTAB
M  V30 COUNTS 41 43 0 0 0
M  V30 BEGIN ATOM
M  V30 1 C -0.435132 -6.915267 0.657082 0
M  V30 2 O -0.962038 -5.633192 0.898875 0
M  V30 3 C -0.404804 -4.513398 0.289801 0
M  V30 4 O 0.581591 -4.818881 -0.462703 0
M  V30 5 C -1.087470 -3.241233 0.659656 0
M  V30 6 C -0.481581 -2.060535 -0.008121 0
M  V30 7 C -0.752453 -1.803620 -1.336448 0
M  V30 8 C -1.640076 -2.640141 -2.160190 0
M  V30 9 N -0.133109 -0.707370 -1.822894 0
M  V30 10 C 0.680211 0.081561 -1.099579 0
M  V30 11 N 1.355650 1.200971 -1.474767 0
M  V30 12 C 2.034419 1.619357 -0.371397 0
M  V30 13 N 2.932486 2.635845 0.118743 0
M  V30 14 C 2.379862 3.841700 0.714631 0
M  V30 15 C 1.558721 3.391732 1.895247 0
M  V30 16 C 2.004165 3.234727 3.182751 0
M  V30 17 C 1.093669 2.810130 4.134398 0
M  V30 18 C -0.219460 2.535175 3.884846 0
M  V30 19 Cl -1.314410 2.001747 5.142322 0
M  V30 20 C -0.626745 2.706684 2.572923 0
M  V30 21 C 0.227253 3.130643 1.557227 0
M  V30 22 N 1.749029 0.741665 0.635550 0
M  V30 23 N 0.919510 -0.202484 0.194030 0
M  V30 24 C 0.345478 -1.281426 0.776436 0
M  V30 25 O 0.587034 -1.574643 2.096310 0
M  V30 26 H -0.995616 -7.384726 -0.170720 0
M  V30 27 H 0.639491 -6.789435 0.390155 0
M  V30 28 H -0.511447 -7.479124 1.618061 0
M  V30 29 H -1.116916 -3.116366 1.772821 0
M  V30 30 H -2.162388 -3.309136 0.363620 0
M  V30 31 H -1.421570 -3.694925 -1.951641 0
M  V30 32 H -1.528938 -2.361665 -3.224146 0
M  V30 33 H -2.684165 -2.357448 -1.863966 0
M  V30 34 H 3.924636 2.299931 -0.055363 0
M  V30 35 H 1.805386 4.456395 0.026016 0
M  V30 36 H 3.254829 4.386679 1.171209 0
M  V30 37 H 3.040812 3.457601 3.350349 0
M  V30 38 H 1.455794 2.688033 5.154383 0
M  V30 39 H -1.663261 2.505262 2.299721 0
M  V30 40 H -0.170432 3.243651 0.538659 0
M  V30 41 H 1.294819 -2.180524 2.461195 0
M  V30 END ATOM
M  V30 BEGIN BOND
M  V30 1 1 1 2
M  V30 2 1 2 3
M  V30 3 2 3 4
M  V30 4 1 3 5
M  V30 5 1 5 6
M  V30 6 1 6 7
M  V30 7 1 7 8
M  V30 8 2 7 9
M  V30 9 1 9 10
M  V30 10 2 10 11
M  V30 11 1 11 12
M  V30 12 1 12 13
M  V30 13 1 13 14
M  V30 14 1 14 15
M  V30 15 2 15 16
M  V30 16 1 16 17
M  V30 17 2 17 18
M  V30 18 1 18 19
M  V30 19 1 18 20
M  V30 20 2 20 21
M  V30 21 2 12 22
M  V30 22 1 22 23
M  V30 23 1 23 24
M  V30 24 1 24 25
M  V30 25 2 24 6
M  V30 26 1 23 10
M  V30 27 1 21 15
M  V30 28 1 1 26
M  V30 29 1 1 27
M  V30 30 1 1 28
M  V30 31 1 5 29
M  V30 32 1 5 30
M  V30 33 1 8 31
M  V30 34 1 8 32
M  V30 35 1 8 33
M  V30 36 1 13 34
M  V30 37 1 14 35
M  V30 38 1 14 36
M  V30 39 1 16 37
M  V30 40 1 17 38
M  V30 41 1 20 39
M  V30 42 1 21 40
M  V30 43 1 25 41
M  V30 END BOND
M  V30 END CTAB
M  END
>  <Dataset>  (849) 
ChEMBL_Kinases

>  <Ligand_Instance>  (849) 
nan

>  <PDB_ID>  (849) 
nan

>  <Standardized_SMILES>  (849) 
COC(=O)Cc1c(C)nc2nc(NCc3ccc(Cl)cc3)nn2c1O

>  <Name>  (849) 
nan

>  <Pocket>  (849) 
nan

>  <ATP_Site>  (849) 
nan

>  <Peripheral>  (849) 
nan

>  <Num_H_Atoms_ProtBoundConf>  (849) 
nan

>  <Num_Resolved_Atoms>  (849) 
nan

>  <Num_Not_Resolved_Atoms>  (849) 
nan

$$$$
CHEMBL1501543
     RDKit          3D

  0  0  0  0  0  0  0  0  0  0999 V3000
M  V30 BEGIN CTAB
M  V30 COUNTS 69 70 0 0 0
M  V30 BEGIN ATOM
M  V30 1 C 0.734859 0.648224 4.000795 0
M  V30 2 C 2.109908 0.076936 3.859639 0
M  V30 3 C 2.381755 -0.935130 4.942451 0
M  V30 4 C 2.348140 -0.533263 2.510773 0 CFG=2
M  V30 5 N 2.205759 0.392850 1.430201 0
M  V30 6 C 3.224006 0.692189 0.484034 0
M  V30 7 O 4.344479 0.128945 0.557669 0
M  V30 8 C 3.165505 1.624115 -0.646572 0 CFG=2
M  V30 9 C 4.245993 2.694384 -0.462581 0
M  V30 10 S 3.346961 3.763775 0.733281 0
M  V30 11 C 1.683024 3.578093 -0.029807 0
M  V30 12 N 1.898032 2.330945 -0.740032 0
M  V30 13 C 0.714330 2.011458 -1.459615 0
M  V30 14 O -0.058657 2.970950 -1.179593 0
M  V30 15 O 0.464611 0.930968 -2.261645 0
M  V30 16 C -0.834725 0.862653 -2.870300 0
M  V30 17 C -1.924696 0.826582 -1.813191 0
M  V30 18 C -0.933409 -0.402903 -3.688719 0
M  V30 19 C -1.093172 2.045901 -3.766717 0
M  V30 20 C 1.471176 -1.701320 2.238857 0
M  V30 21 O 1.596071 -2.517001 3.211322 0
M  V30 22 N 0.639051 -1.919534 1.133510 0
M  V30 23 C -0.040299 -3.205973 1.284974 0
M  V30 24 C -0.947446 -3.470373 0.098186 0 CFG=1
M  V30 25 C -1.666538 -4.789279 0.217643 0
M  V30 26 C -3.157314 -4.645434 -0.052800 0
M  V30 27 C -3.659059 -3.636885 0.945398 0 CFG=2
M  V30 28 C -5.144178 -3.592263 0.995287 0
M  V30 29 O -5.917650 -4.300030 0.298713 0
M  V30 30 O -5.725115 -2.697147 1.882222 0
M  V30 31 C -3.142858 -2.290838 0.526261 0
M  V30 32 C -1.843056 -2.316773 -0.202701 0
M  V30 33 H 0.741594 1.749342 3.864047 0
M  V30 34 H 0.316499 0.408890 5.003963 0
M  V30 35 H 0.021975 0.204440 3.266786 0
M  V30 36 H 2.910878 0.859496 3.989409 0
M  V30 37 H 3.203740 -1.615399 4.646922 0
M  V30 38 H 1.467297 -1.461660 5.297535 0
M  V30 39 H 2.778259 -0.420150 5.866769 0
M  V30 40 H 3.394875 -0.954171 2.508768 0
M  V30 41 H 1.308168 0.906978 1.289407 0
M  V30 42 H 3.340360 1.162884 -1.624336 0
M  V30 43 H 4.429680 3.222245 -1.401603 0
M  V30 44 H 5.129286 2.250202 0.022853 0
M  V30 45 H 1.502459 4.428488 -0.714468 0
M  V30 46 H 0.942513 3.443557 0.758545 0
M  V30 47 H -2.584361 -0.048567 -1.888925 0
M  V30 48 H -2.545652 1.750391 -1.857188 0
M  V30 49 H -1.426588 0.860815 -0.829673 0
M  V30 50 H -0.661103 -0.148372 -4.744955 0
M  V30 51 H -0.213568 -1.173293 -3.290902 0
M  V30 52 H -1.978859 -0.765820 -3.634547 0
M  V30 53 H -2.130147 2.388816 -3.648177 0
M  V30 54 H -0.907554 1.744264 -4.824127 0
M  V30 55 H -0.403564 2.884413 -3.495187 0
M  V30 56 H 0.714018 -1.109703 0.482134 0
M  V30 57 H 0.758350 -3.970143 1.369667 0
M  V30 58 H -0.607369 -3.239900 2.244298 0
M  V30 59 H -0.244197 -3.581022 -0.777351 0
M  V30 60 H -1.306856 -5.549126 -0.506980 0
M  V30 61 H -1.561565 -5.240504 1.225182 0
M  V30 62 H -3.629021 -5.622232 0.043252 0
M  V30 63 H -3.277372 -4.273488 -1.097555 0
M  V30 64 H -3.333485 -3.959818 1.945731 0
M  V30 65 H -6.675675 -2.365396 1.790235 0
M  V30 66 H -3.917511 -1.888984 -0.191017 0
M  V30 67 H -3.185544 -1.609655 1.392171 0
M  V30 68 H -2.012369 -2.304867 -1.319947 0
M  V30 69 H -1.234242 -1.393553 -0.033355 0
M  V30 END ATOM
M  V30 BEGIN BOND
M  V30 1 1 1 2
M  V30 2 1 2 3
M  V30 3 1 2 4
M  V30 4 1 4 5
M  V30 5 1 5 6
M  V30 6 2 6 7
M  V30 7 1 6 8
M  V30 8 1 8 9
M  V30 9 1 9 10
M  V30 10 1 10 11
M  V30 11 1 11 12
M  V30 12 1 12 13
M  V30 13 2 13 14
M  V30 14 1 13 15
M  V30 15 1 15 16
M  V30 16 1 16 17
M  V30 17 1 16 18
M  V30 18 1 16 19
M  V30 19 1 4 20
M  V30 20 2 20 21
M  V30 21 1 20 22
M  V30 22 1 22 23
M  V30 23 1 23 24
M  V30 24 1 24 25
M  V30 25 1 25 26
M  V30 26 1 26 27
M  V30 27 1 27 28
M  V30 28 2 28 29
M  V30 29 1 28 30
M  V30 30 1 27 31
M  V30 31 1 31 32
M  V30 32 1 12 8
M  V30 33 1 32 24
M  V30 34 1 1 33
M  V30 35 1 1 34
M  V30 36 1 1 35
M  V30 37 1 2 36
M  V30 38 1 3 37
M  V30 39 1 3 38
M  V30 40 1 3 39
M  V30 41 1 4 40 CFG=1
M  V30 42 1 5 41
M  V30 43 1 8 42 CFG=3
M  V30 44 1 9 43
M  V30 45 1 9 44
M  V30 46 1 11 45
M  V30 47 1 11 46
M  V30 48 1 17 47
M  V30 49 1 17 48
M  V30 50 1 17 49
M  V30 51 1 18 50
M  V30 52 1 18 51
M  V30 53 1 18 52
M  V30 54 1 19 53
M  V30 55 1 19 54
M  V30 56 1 19 55
M  V30 57 1 22 56
M  V30 58 1 23 57
M  V30 59 1 23 58
M  V30 60 1 24 59 CFG=3
M  V30 61 1 25 60
M  V30 62 1 25 61
M  V30 63 1 26 62
M  V30 64 1 26 63
M  V30 65 1 27 64 CFG=1
M  V30 66 1 30 65
M  V30 67 1 31 66
M  V30 68 1 31 67
M  V30 69 1 32 68
M  V30 70 1 32 69
M  V30 END BOND
M  V30 END CTAB
M  END
>  <Dataset>  (850) 
ChEMBL_Kinases

>  <Ligand_Instance>  (850) 
nan

>  <PDB_ID>  (850) 
nan

>  <Standardized_SMILES>  (850) 
CC(C)[C@H](NC(=O)[C@@H]1CSCN1C(=O)OC(C)(C)C)C(=O)NC[C@H]1CC[C@H](C(=O)O)CC1

>  <Name>  (850) 
nan

>  <Pocket>  (850) 
nan

>  <ATP_Site>  (850) 
nan

>  <Peripheral>  (850) 
nan

>  <Num_H_Atoms_ProtBoundConf>  (850) 
nan

>  <Num_Resolved_Atoms>  (850) 
nan

>  <Num_Not_Resolved_Atoms>  (850) 
nan

$$$$
CHEMBL1501716
     RDKit          3D

  0  0  0  0  0  0  0  0  0  0999 V3000
M  V30 BEGIN CTAB
M  V30 COUNTS 51 54 0 0 0
M  V30 BEGIN ATOM
M  V30 1 C -1.547607 0.403788 3.747463 0
M  V30 2 C -0.054708 0.530929 3.804803 0
M  V30 3 C 0.596754 -0.504295 4.675514 0
M  V30 4 C 2.036042 -0.746811 4.234500 0
M  V30 5 C 2.070605 -1.405509 2.870044 0
M  V30 6 N 1.070426 -0.772022 2.044452 0
M  V30 7 C 0.651252 -1.548180 0.903143 0
M  V30 8 C 1.156657 -1.442287 -0.337726 0
M  V30 9 N 2.174875 -0.509077 -0.567735 0
M  V30 10 S 2.185976 0.599318 -1.875193 0
M  V30 11 O 2.275252 -0.044491 -3.215765 0
M  V30 12 O 3.403085 1.489744 -1.752830 0
M  V30 13 C 0.798682 1.680588 -1.781422 0
M  V30 14 C 0.814095 2.890215 -1.108392 0
M  V30 15 C -0.296271 3.702196 -1.062860 0
M  V30 16 C -1.439291 3.265849 -1.717963 0
M  V30 17 Cl -2.848832 4.310373 -1.652552 0
M  V30 18 C -1.520522 2.067667 -2.408538 0
M  V30 19 C -0.372983 1.286659 -2.423505 0
M  V30 20 C 0.598769 -2.318518 -1.362447 0
M  V30 21 O 1.029697 -2.259903 -2.520347 0
M  V30 22 C -0.463063 -3.283236 -1.095961 0
M  V30 23 C -0.978041 -4.103323 -2.077377 0
M  V30 24 C -1.982163 -5.022257 -1.846366 0
M  V30 25 C -2.490584 -5.111823 -0.544613 0
M  V30 26 C -1.987947 -4.297787 0.456176 0
M  V30 27 C -0.983881 -3.389209 0.192680 0
M  V30 28 C -0.415439 -2.506431 1.205167 0
M  V30 29 O -0.915547 -2.637449 2.350300 0
M  V30 30 C 0.602152 0.552999 2.443135 0
M  V30 31 H -1.901234 -0.089074 4.680127 0
M  V30 32 H -1.893907 -0.106549 2.825956 0
M  V30 33 H -2.044605 1.412710 3.759818 0
M  V30 34 H 0.146081 1.521169 4.298913 0
M  V30 35 H 0.609488 -0.168951 5.724641 0
M  V30 36 H -0.007559 -1.436130 4.652145 0
M  V30 37 H 2.507841 -1.397697 4.976234 0
M  V30 38 H 2.518596 0.247947 4.163840 0
M  V30 39 H 1.856757 -2.501383 2.955117 0
M  V30 40 H 3.065655 -1.207546 2.441306 0
M  V30 41 H 2.965891 -0.526863 0.136167 0
M  V30 42 H 1.764347 3.120556 -0.636828 0
M  V30 43 H -0.246388 4.635283 -0.529922 0
M  V30 44 H -2.439992 1.821186 -2.877849 0
M  V30 45 H -0.472320 0.356597 -2.972708 0
M  V30 46 H -0.571927 -4.023658 -3.091540 0
M  V30 47 H -2.399135 -5.675446 -2.606857 0
M  V30 48 H -3.276287 -5.829957 -0.360986 0
M  V30 49 H -2.373419 -4.358172 1.466825 0
M  V30 50 H -0.162570 0.915306 1.701403 0
M  V30 51 H 1.434949 1.286248 2.443078 0
M  V30 END ATOM
M  V30 BEGIN BOND
M  V30 1 1 1 2
M  V30 2 1 2 3
M  V30 3 1 3 4
M  V30 4 1 4 5
M  V30 5 1 5 6
M  V30 6 1 6 7
M  V30 7 2 7 8
M  V30 8 1 8 9
M  V30 9 1 9 10
M  V30 10 2 10 11
M  V30 11 2 10 12
M  V30 12 1 10 13
M  V30 13 2 13 14
M  V30 14 1 14 15
M  V30 15 2 15 16
M  V30 16 1 16 17
M  V30 17 1 16 18
M  V30 18 2 18 19
M  V30 19 1 8 20
M  V30 20 2 20 21
M  V30 21 1 20 22
M  V30 22 2 22 23
M  V30 23 1 23 24
M  V30 24 2 24 25
M  V30 25 1 25 26
M  V30 26 2 26 27
M  V30 27 1 27 28
M  V30 28 2 28 29
M  V30 29 1 6 30
M  V30 30 1 30 2
M  V30 31 1 28 7
M  V30 32 1 19 13
M  V30 33 1 27 22
M  V30 34 1 1 31
M  V30 35 1 1 32
M  V30 36 1 1 33
M  V30 37 1 2 34
M  V30 38 1 3 35
M  V30 39 1 3 36
M  V30 40 1 4 37
M  V30 41 1 4 38
M  V30 42 1 5 39
M  V30 43 1 5 40
M  V30 44 1 9 41
M  V30 45 1 14 42
M  V30 46 1 15 43
M  V30 47 1 18 44
M  V30 48 1 19 45
M  V30 49 1 23 46
M  V30 50 1 24 47
M  V30 51 1 25 48
M  V30 52 1 26 49
M  V30 53 1 30 50
M  V30 54 1 30 51
M  V30 END BOND
M  V30 END CTAB
M  END
>  <Dataset>  (851) 
ChEMBL_Kinases

>  <Ligand_Instance>  (851) 
nan

>  <PDB_ID>  (851) 
nan

>  <Standardized_SMILES>  (851) 
CC1CCCN(C2=C(NS(=O)(=O)c3ccc(Cl)cc3)C(=O)c3ccccc3C2=O)C1

>  <Name>  (851) 
nan

>  <Pocket>  (851) 
nan

>  <ATP_Site>  (851) 
nan

>  <Peripheral>  (851) 
nan

>  <Num_H_Atoms_ProtBoundConf>  (851) 
nan

>  <Num_Resolved_Atoms>  (851) 
nan

>  <Num_Not_Resolved_Atoms>  (851) 
nan

$$$$
CHEMBL1501768
     RDKit          3D

  0  0  0  0  0  0  0  0  0  0999 V3000
M  V30 BEGIN CTAB
M  V30 COUNTS 62 65 0 0 0
M  V30 BEGIN ATOM
M  V30 1 C 5.740984 0.101528 4.489588 0
M  V30 2 C 5.049394 -0.710661 3.415929 0
M  V30 3 O 4.196651 0.079860 2.614027 0
M  V30 4 C 3.513376 -0.552945 1.575243 0
M  V30 5 O 4.128927 -1.627174 0.947056 0
M  V30 6 C 2.298160 -0.074777 1.253689 0
M  V30 7 C 1.821390 1.045044 2.015148 0
M  V30 8 C 2.454359 1.636420 3.210431 0
M  V30 9 N 0.696088 1.552902 1.553033 0
M  V30 10 C 0.097529 0.984049 0.425178 0
M  V30 11 S -1.454713 1.600027 -0.436575 0
M  V30 12 C -1.360976 0.291959 -1.757026 0
M  V30 13 C -2.302395 0.234779 -2.783341 0
M  V30 14 O -2.078597 -0.648635 -3.665219 0
M  V30 15 C -3.474421 1.061283 -2.936178 0
M  V30 16 C -4.178080 1.748669 -1.980256 0
M  V30 17 C -5.275900 2.523342 -2.265558 0
M  V30 18 C -5.745826 2.662390 -3.535141 0
M  V30 19 O -6.845979 3.431116 -3.865209 0
M  V30 20 C -7.592726 4.150949 -2.907346 0
M  V30 21 C -5.078942 1.994269 -4.538818 0
M  V30 22 C -3.982755 1.224603 -4.231644 0
M  V30 23 C -0.226986 -0.459714 -1.451278 0
M  V30 24 N 0.066166 -1.539542 -2.325619 0
M  V30 25 C 0.494589 -0.112660 -0.364433 0
M  V30 26 C 1.700367 -0.799658 0.154528 0
M  V30 27 C 1.371662 -2.187663 0.634035 0
M  V30 28 C 1.577337 -3.384245 0.024785 0
M  V30 29 C 1.179127 -4.544175 0.656868 0
M  V30 30 C 0.576249 -4.561882 1.887372 0
M  V30 31 C 0.167453 -5.821488 2.516868 0
M  V30 32 O 0.402128 -6.891784 1.871637 0
M  V30 33 O -0.432741 -5.768694 3.741919 0
M  V30 34 C -0.881692 -6.875516 4.476377 0
M  V30 35 C 0.367406 -3.345207 2.506990 0
M  V30 36 C 0.758794 -2.157082 1.893259 0
M  V30 37 H 5.506823 -0.249337 5.521999 0
M  V30 38 H 5.472873 1.168679 4.450676 0
M  V30 39 H 6.838263 0.046416 4.354156 0
M  V30 40 H 4.523525 -1.543830 3.927868 0
M  V30 41 H 5.833691 -1.197530 2.767968 0
M  V30 42 H 5.089398 -1.686678 0.730092 0
M  V30 43 H 1.726873 2.390484 3.636309 0
M  V30 44 H 2.583219 0.912615 4.054658 0
M  V30 45 H 3.361023 2.236252 3.000931 0
M  V30 46 H -3.865924 1.671971 -0.968508 0
M  V30 47 H -5.789384 3.045079 -1.451335 0
M  V30 48 H -8.380617 3.487160 -2.463426 0
M  V30 49 H -8.153268 4.998878 -3.382264 0
M  V30 50 H -6.983905 4.574525 -2.098119 0
M  V30 51 H -5.443285 2.095236 -5.559995 0
M  V30 52 H -3.526663 0.739362 -5.091763 0
M  V30 53 H -0.211043 -2.511389 -2.069262 0
M  V30 54 H 0.561810 -1.262458 -3.210517 0
M  V30 55 H 2.430496 -0.964905 -0.683121 0
M  V30 56 H 2.054530 -3.300865 -0.937307 0
M  V30 57 H 1.376776 -5.466873 0.107453 0
M  V30 58 H -0.583102 -7.864203 4.035432 0
M  V30 59 H -1.977179 -6.824425 4.688242 0
M  V30 60 H -0.390118 -6.865032 5.482704 0
M  V30 61 H -0.110811 -3.409574 3.480252 0
M  V30 62 H 0.509410 -1.301483 2.540262 0
M  V30 END ATOM
M  V30 BEGIN BOND
M  V30 1 1 1 2
M  V30 2 1 2 3
M  V30 3 1 3 4
M  V30 4 1 4 5
M  V30 5 2 4 6
M  V30 6 1 6 7
M  V30 7 1 7 8
M  V30 8 2 7 9
M  V30 9 1 9 10
M  V30 10 1 10 11
M  V30 11 1 11 12
M  V30 12 1 12 13
M  V30 13 2 13 14
M  V30 14 1 13 15
M  V30 15 2 15 16
M  V30 16 1 16 17
M  V30 17 2 17 18
M  V30 18 1 18 19
M  V30 19 1 19 20
M  V30 20 1 18 21
M  V30 21 2 21 22
M  V30 22 2 12 23
M  V30 23 1 23 24
M  V30 24 1 23 25
M  V30 25 1 25 26
M  V30 26 1 26 27
M  V30 27 2 27 28
M  V30 28 1 28 29
M  V30 29 2 29 30
M  V30 30 1 30 31
M  V30 31 2 31 32
M  V30 32 1 31 33
M  V30 33 1 33 34
M  V30 34 1 30 35
M  V30 35 2 35 36
M  V30 36 1 26 6
M  V30 37 1 36 27
M  V30 38 2 25 10
M  V30 39 1 22 15
M  V30 40 1 1 37
M  V30 41 1 1 38
M  V30 42 1 1 39
M  V30 43 1 2 40
M  V30 44 1 2 41
M  V30 45 1 5 42
M  V30 46 1 8 43
M  V30 47 1 8 44
M  V30 48 1 8 45
M  V30 49 1 16 46
M  V30 50 1 17 47
M  V30 51 1 20 48
M  V30 52 1 20 49
M  V30 53 1 20 50
M  V30 54 1 21 51
M  V30 55 1 22 52
M  V30 56 1 24 53
M  V30 57 1 24 54
M  V30 58 1 26 55
M  V30 59 1 28 56
M  V30 60 1 29 57
M  V30 61 1 34 58
M  V30 62 1 34 59
M  V30 63 1 34 60
M  V30 64 1 35 61
M  V30 65 1 36 62
M  V30 END BOND
M  V30 END CTAB
M  END
>  <Dataset>  (852) 
ChEMBL_Kinases

>  <Ligand_Instance>  (852) 
nan

>  <PDB_ID>  (852) 
nan

>  <Standardized_SMILES>  (852) 
CCO/C(O)=C1\C(C)=Nc2sc(C(=O)c3ccc(OC)cc3)c(N)c2C1c1ccc(C(=O)OC)cc1

>  <Name>  (852) 
nan

>  <Pocket>  (852) 
nan

>  <ATP_Site>  (852) 
nan

>  <Peripheral>  (852) 
nan

>  <Num_H_Atoms_ProtBoundConf>  (852) 
nan

>  <Num_Resolved_Atoms>  (852) 
nan

>  <Num_Not_Resolved_Atoms>  (852) 
nan

$$$$
CHEMBL1501948
     RDKit          3D

  0  0  0  0  0  0  0  0  0  0999 V3000
M  V30 BEGIN CTAB
M  V30 COUNTS 27 30 0 0 0
M  V30 BEGIN ATOM
M  V30 1 C -0.033794 -3.737590 3.114704 0
M  V30 2 C 0.173949 -2.929291 4.230682 0
M  V30 3 C 0.348313 -1.565719 3.973839 0
M  V30 4 C 0.317140 -1.049914 2.696530 0
M  V30 5 C 0.105054 -1.933446 1.658834 0
M  V30 6 C -0.076934 -3.282480 1.797702 0
M  V30 7 N 0.080106 -1.398319 0.423249 0
M  V30 8 C 0.245805 -0.090950 0.158738 0
M  V30 9 C 0.200161 0.381831 -1.220085 0
M  V30 10 C -0.523609 -0.386618 -2.140509 0
M  V30 11 C -0.546779 0.092707 -3.446936 0
M  V30 12 N 0.064577 1.212834 -3.863085 0
M  V30 13 C 0.770339 1.965398 -2.973749 0
M  V30 14 C 0.814440 1.518593 -1.666792 0
M  V30 15 N 0.449215 0.725213 1.208462 0
M  V30 16 N 0.642667 2.029817 1.286072 0
M  V30 17 N 0.802256 2.433619 2.521766 0
M  V30 18 N 0.712992 1.362887 3.302726 0
M  V30 19 C 0.494125 0.301186 2.493030 0
M  V30 20 H -0.172834 -4.814211 3.300848 0
M  V30 21 H 0.191289 -3.373409 5.215103 0
M  V30 22 H 0.511745 -0.918522 4.832178 0
M  V30 23 H -0.239512 -3.952877 0.990270 0
M  V30 24 H -1.049660 -1.307809 -1.890467 0
M  V30 25 H -1.072140 -0.413301 -4.246270 0
M  V30 26 H 1.264631 2.867289 -3.300678 0
M  V30 27 H 1.372117 2.118720 -0.977927 0
M  V30 END ATOM
M  V30 BEGIN BOND
M  V30 1 2 1 2
M  V30 2 1 2 3
M  V30 3 2 3 4
M  V30 4 1 4 5
M  V30 5 2 5 6
M  V30 6 1 5 7
M  V30 7 2 7 8
M  V30 8 1 8 9
M  V30 9 2 9 10
M  V30 10 1 10 11
M  V30 11 2 11 12
M  V30 12 1 12 13
M  V30 13 2 13 14
M  V30 14 1 8 15
M  V30 15 1 15 16
M  V30 16 2 16 17
M  V30 17 1 17 18
M  V30 18 2 18 19
M  V30 19 1 6 1
M  V30 20 1 14 9
M  V30 21 1 19 15
M  V30 22 1 19 4
M  V30 23 1 1 20
M  V30 24 1 2 21
M  V30 25 1 3 22
M  V30 26 1 6 23
M  V30 27 1 10 24
M  V30 28 1 11 25
M  V30 29 1 13 26
M  V30 30 1 14 27
M  V30 END BOND
M  V30 END CTAB
M  END
>  <Dataset>  (853) 
ChEMBL_Kinases

>  <Ligand_Instance>  (853) 
nan

>  <PDB_ID>  (853) 
nan

>  <Standardized_SMILES>  (853) 
c1ccc2c(c1)nc(-c1ccncc1)n1nnnc21

>  <Name>  (853) 
nan

>  <Pocket>  (853) 
nan

>  <ATP_Site>  (853) 
nan

>  <Peripheral>  (853) 
nan

>  <Num_H_Atoms_ProtBoundConf>  (853) 
nan

>  <Num_Resolved_Atoms>  (853) 
nan

>  <Num_Not_Resolved_Atoms>  (853) 
nan

$$$$
CHEMBL1501974
     RDKit          3D

  0  0  0  0  0  0  0  0  0  0999 V3000
M  V30 BEGIN CTAB
M  V30 COUNTS 29 30 0 0 0
M  V30 BEGIN ATOM
M  V30 1 C -1.119033 -3.754458 2.478142 0
M  V30 2 C -1.123696 -2.370284 3.086767 0
M  V30 3 C -0.307516 -1.405824 2.282311 0
M  V30 4 N 0.920868 -0.934522 2.570991 0
M  V30 5 C 1.502534 -0.066686 1.723910 0
M  V30 6 C 2.770856 0.385089 2.072803 0
M  V30 7 C 3.454784 1.288435 1.253265 0
M  V30 8 C 2.825827 1.701553 0.106354 0
M  V30 9 C 1.563471 1.274219 -0.274859 0
M  V30 10 C 0.904193 0.382395 0.547340 0
M  V30 11 N -0.320275 -0.075228 0.240834 0
M  V30 12 C -1.002155 0.347826 -0.963761 0
M  V30 13 C -0.642080 -0.598453 -2.081870 0
M  V30 14 C -0.900038 -0.950552 1.101740 0
M  V30 15 O -2.055553 -1.351603 0.768765 0
M  V30 16 H -0.235700 -4.337972 2.801070 0
M  V30 17 H -1.034579 -3.658685 1.376137 0
M  V30 18 H -2.055813 -4.300939 2.672643 0
M  V30 19 H -0.654829 -2.420768 4.082031 0
M  V30 20 H -2.145032 -1.975607 3.094965 0
M  V30 21 H 3.311403 0.088354 2.972900 0
M  V30 22 H 4.440799 1.644447 1.523086 0
M  V30 23 H 3.336514 2.407024 -0.553685 0
M  V30 24 H 1.101048 1.625062 -1.190202 0
M  V30 25 H -2.103838 0.187135 -0.765783 0
M  V30 26 H -0.919971 1.404087 -1.204528 0
M  V30 27 H -1.020723 -0.220404 -3.053748 0
M  V30 28 H 0.446799 -0.815348 -2.133682 0
M  V30 29 H -1.215368 -1.550692 -1.885242 0
M  V30 END ATOM
M  V30 BEGIN BOND
M  V30 1 1 1 2
M  V30 2 1 2 3
M  V30 3 2 3 4
M  V30 4 1 4 5
M  V30 5 2 5 6
M  V30 6 1 6 7
M  V30 7 2 7 8
M  V30 8 1 8 9
M  V30 9 2 9 10
M  V30 10 1 10 11
M  V30 11 1 11 12
M  V30 12 1 12 13
M  V30 13 1 11 14
M  V30 14 2 14 15
M  V30 15 1 14 3
M  V30 16 1 10 5
M  V30 17 1 1 16
M  V30 18 1 1 17
M  V30 19 1 1 18
M  V30 20 1 2 19
M  V30 21 1 2 20
M  V30 22 1 6 21
M  V30 23 1 7 22
M  V30 24 1 8 23
M  V30 25 1 9 24
M  V30 26 1 12 25
M  V30 27 1 12 26
M  V30 28 1 13 27
M  V30 29 1 13 28
M  V30 30 1 13 29
M  V30 END BOND
M  V30 END CTAB
M  END
>  <Dataset>  (854) 
ChEMBL_Kinases

>  <Ligand_Instance>  (854) 
nan

>  <PDB_ID>  (854) 
nan

>  <Standardized_SMILES>  (854) 
CCc1nc2ccccc2n(CC)c1=O

>  <Name>  (854) 
nan

>  <Pocket>  (854) 
nan

>  <ATP_Site>  (854) 
nan

>  <Peripheral>  (854) 
nan

>  <Num_H_Atoms_ProtBoundConf>  (854) 
nan

>  <Num_Resolved_Atoms>  (854) 
nan

>  <Num_Not_Resolved_Atoms>  (854) 
nan

$$$$
CHEMBL1502148
     RDKit          3D

  0  0  0  0  0  0  0  0  0  0999 V3000
M  V30 BEGIN CTAB
M  V30 COUNTS 52 54 0 0 0
M  V30 BEGIN ATOM
M  V30 1 C 1.956405 -5.019556 0.139776 0
M  V30 2 C 2.348065 -5.206582 -1.287390 0
M  V30 3 O 3.697561 -4.907860 -1.573168 0
M  V30 4 C 4.182983 -3.632029 -1.346127 0
M  V30 5 C 5.526527 -3.534001 -1.683137 0
M  V30 6 C 6.235818 -2.358392 -1.545123 0
M  V30 7 C 5.598225 -1.237095 -1.056855 0
M  V30 8 C 4.242992 -1.321185 -0.712763 0
M  V30 9 C 3.402463 -0.248527 -0.183174 0
M  V30 10 N 2.682326 0.467290 -1.096282 0
M  V30 11 N 1.972306 1.398731 -0.477574 0
M  V30 12 C 2.240643 1.278699 0.849349 0
M  V30 13 S 1.714499 2.123094 2.342785 0
M  V30 14 C 0.239169 1.358472 3.042823 0
M  V30 15 C -0.927359 1.529453 2.141565 0
M  V30 16 O -0.692615 2.157995 1.081225 0
M  V30 17 N -2.226931 1.047040 2.397952 0
M  V30 18 C -3.388902 1.161435 1.605128 0
M  V30 19 C -3.518008 1.777647 0.387881 0
M  V30 20 C -4.680604 1.850014 -0.326792 0
M  V30 21 C -4.720705 2.540821 -1.638375 0
M  V30 22 C -5.815039 1.285322 0.164514 0
M  V30 23 C -5.731812 0.655962 1.383467 0
M  V30 24 C -4.549026 0.597054 2.082970 0
M  V30 25 O -4.546241 -0.053468 3.301331 0
M  V30 26 C -5.649790 -0.669179 3.903084 0
M  V30 27 N 3.114829 0.272365 1.033579 0
M  V30 28 N 3.764348 -0.336284 2.105259 0
M  V30 29 C 3.551741 -2.507200 -0.858683 0
M  V30 30 H 1.733430 -6.008869 0.597146 0
M  V30 31 H 1.057318 -4.380238 0.181484 0
M  V30 32 H 2.736997 -4.578306 0.791043 0
M  V30 33 H 2.163556 -6.271563 -1.568252 0
M  V30 34 H 1.661991 -4.621035 -1.965486 0
M  V30 35 H 6.165615 -4.332709 -2.081232 0
M  V30 36 H 7.280474 -2.226874 -1.791784 0
M  V30 37 H 6.008183 -0.246309 -0.889483 0
M  V30 38 H 0.007986 1.858446 3.997165 0
M  V30 39 H 0.376477 0.284250 3.264369 0
M  V30 40 H -2.259697 0.550122 3.312185 0
M  V30 41 H -2.652464 2.242486 -0.050324 0
M  V30 42 H -4.064024 2.004157 -2.353833 0
M  V30 43 H -5.737400 2.568536 -2.049154 0
M  V30 44 H -4.286427 3.554733 -1.520020 0
M  V30 45 H -6.746641 1.327300 -0.378190 0
M  V30 46 H -6.608020 0.201417 1.797744 0
M  V30 47 H -6.240689 0.103489 4.439420 0
M  V30 48 H -6.277891 -1.238370 3.200464 0
M  V30 49 H -5.305838 -1.426210 4.660634 0
M  V30 50 H 4.777126 -0.120239 2.259252 0
M  V30 51 H 3.031751 -0.942306 2.579635 0
M  V30 52 H 2.518661 -2.668489 -0.626334 0
M  V30 END ATOM
M  V30 BEGIN BOND
M  V30 1 1 1 2
M  V30 2 1 2 3
M  V30 3 1 3 4
M  V30 4 2 4 5
M  V30 5 1 5 6
M  V30 6 2 6 7
M  V30 7 1 7 8
M  V30 8 1 8 9
M  V30 9 2 9 10
M  V30 10 1 10 11
M  V30 11 2 11 12
M  V30 12 1 12 13
M  V30 13 1 13 14
M  V30 14 1 14 15
M  V30 15 2 15 16
M  V30 16 1 15 17
M  V30 17 1 17 18
M  V30 18 2 18 19
M  V30 19 1 19 20
M  V30 20 1 20 21
M  V30 21 2 20 22
M  V30 22 1 22 23
M  V30 23 2 23 24
M  V30 24 1 24 25
M  V30 25 1 25 26
M  V30 26 1 12 27
M  V30 27 1 27 28
M  V30 28 2 8 29
M  V30 29 1 29 4
M  V30 30 1 27 9
M  V30 31 1 24 18
M  V30 32 1 1 30
M  V30 33 1 1 31
M  V30 34 1 1 32
M  V30 35 1 2 33
M  V30 36 1 2 34
M  V30 37 1 5 35
M  V30 38 1 6 36
M  V30 39 1 7 37
M  V30 40 1 14 38
M  V30 41 1 14 39
M  V30 42 1 17 40
M  V30 43 1 19 41
M  V30 44 1 21 42
M  V30 45 1 21 43
M  V30 46 1 21 44
M  V30 47 1 22 45
M  V30 48 1 23 46
M  V30 49 1 26 47
M  V30 50 1 26 48
M  V30 51 1 26 49
M  V30 52 1 28 50
M  V30 53 1 28 51
M  V30 54 1 29 52
M  V30 END BOND
M  V30 END CTAB
M  END
>  <Dataset>  (855) 
ChEMBL_Kinases

>  <Ligand_Instance>  (855) 
nan

>  <PDB_ID>  (855) 
nan

>  <Standardized_SMILES>  (855) 
CCOc1cccc(-c2nnc(SCC(=O)Nc3cc(C)ccc3OC)n2N)c1

>  <Name>  (855) 
nan

>  <Pocket>  (855) 
nan

>  <ATP_Site>  (855) 
nan

>  <Peripheral>  (855) 
nan

>  <Num_H_Atoms_ProtBoundConf>  (855) 
nan

>  <Num_Resolved_Atoms>  (855) 
nan

>  <Num_Not_Resolved_Atoms>  (855) 
nan

$$$$
CHEMBL1502828
     RDKit          3D

  0  0  0  0  0  0  0  0  0  0999 V3000
M  V30 BEGIN CTAB
M  V30 COUNTS 53 56 0 0 0
M  V30 BEGIN ATOM
M  V30 1 C 2.034112 1.163167 5.204241 0
M  V30 2 C 2.003442 0.009129 4.259380 0
M  V30 3 C 1.590053 -1.233230 5.052816 0
M  V30 4 N 1.021508 0.164752 3.206599 0
M  V30 5 C 1.342894 -0.117120 1.930955 0
M  V30 6 O 2.597601 -0.561579 1.554157 0
M  V30 7 C 0.426430 0.022057 0.909885 0
M  V30 8 C 0.704694 -0.262997 -0.540402 0
M  V30 9 C 0.936588 1.051688 -1.186697 0
M  V30 10 C 1.961565 1.872344 -0.835527 0
M  V30 11 C 2.219260 3.102781 -1.404277 0
M  V30 12 Cl 3.541832 4.155236 -0.946547 0
M  V30 13 C 1.381716 3.567467 -2.419623 0
M  V30 14 C 0.328607 2.767709 -2.808334 0
M  V30 15 C 0.135082 1.549573 -2.192563 0
M  V30 16 O -0.957235 0.853921 -2.682003 0
M  V30 17 C -1.310278 -0.388430 -2.187726 0
M  V30 18 N -2.347821 -1.140069 -2.594857 0
M  V30 19 C -2.618359 -2.342709 -2.055838 0
M  V30 20 O -3.624623 -2.914448 -2.551491 0
M  V30 21 N -1.832642 -2.833494 -1.068140 0
M  V30 22 C -2.182539 -4.135934 -0.533653 0
M  V30 23 C -3.652397 -4.389944 -0.543543 0
M  V30 24 C -1.438986 -5.263001 -1.214459 0
M  V30 25 C -0.771448 -2.086079 -0.637977 0
M  V30 26 O -0.133410 -2.686665 0.293588 0
M  V30 27 C -0.491444 -0.850054 -1.190278 0
M  V30 28 C -0.852558 0.463784 1.222402 0
M  V30 29 O -1.783392 0.632566 0.379936 0
M  V30 30 N -1.158976 0.741432 2.501464 0
M  V30 31 C -0.230402 0.591144 3.469078 0
M  V30 32 O -0.513837 0.852447 4.682035 0
M  V30 33 H 1.528949 2.070499 4.814458 0
M  V30 34 H 1.662470 0.887579 6.213379 0
M  V30 35 H 3.097864 1.474073 5.353346 0
M  V30 36 H 2.991243 -0.151234 3.801565 0
M  V30 37 H 1.938681 -2.159685 4.544769 0
M  V30 38 H 0.482898 -1.214943 5.114869 0
M  V30 39 H 1.982840 -1.133515 6.095693 0
M  V30 40 H 2.947051 -1.472003 1.846176 0
M  V30 41 H 1.596160 -0.918171 -0.643043 0
M  V30 42 H 2.665291 1.627757 -0.076670 0
M  V30 43 H 1.556237 4.524936 -2.884701 0
M  V30 44 H -0.298603 3.159607 -3.596923 0
M  V30 45 H -2.921264 -0.713150 -3.360043 0
M  V30 46 H -1.850477 -4.156421 0.545440 0
M  V30 47 H -4.232144 -3.466143 -0.322320 0
M  V30 48 H -4.033684 -4.926643 -1.436542 0
M  V30 49 H -3.889975 -5.088624 0.310830 0
M  V30 50 H -1.215291 -5.074806 -2.278654 0
M  V30 51 H -0.523704 -5.557506 -0.635738 0
M  V30 52 H -2.106409 -6.157836 -1.177060 0
M  V30 53 H -2.117102 1.076801 2.766171 0
M  V30 END ATOM
M  V30 BEGIN BOND
M  V30 1 1 1 2
M  V30 2 1 2 3
M  V30 3 1 2 4
M  V30 4 1 4 5
M  V30 5 1 5 6
M  V30 6 2 5 7
M  V30 7 1 7 8
M  V30 8 1 8 9
M  V30 9 2 9 10
M  V30 10 1 10 11
M  V30 11 1 11 12
M  V30 12 2 11 13
M  V30 13 1 13 14
M  V30 14 2 14 15
M  V30 15 1 15 16
M  V30 16 1 16 17
M  V30 17 1 17 18
M  V30 18 1 18 19
M  V30 19 2 19 20
M  V30 20 1 19 21
M  V30 21 1 21 22
M  V30 22 1 22 23
M  V30 23 1 22 24
M  V30 24 1 21 25
M  V30 25 2 25 26
M  V30 26 1 25 27
M  V30 27 1 7 28
M  V30 28 2 28 29
M  V30 29 1 28 30
M  V30 30 1 30 31
M  V30 31 2 31 32
M  V30 32 1 31 4
M  V30 33 1 27 8
M  V30 34 1 15 9
M  V30 35 2 27 17
M  V30 36 1 1 33
M  V30 37 1 1 34
M  V30 38 1 1 35
M  V30 39 1 2 36
M  V30 40 1 3 37
M  V30 41 1 3 38
M  V30 42 1 3 39
M  V30 43 1 6 40
M  V30 44 1 8 41
M  V30 45 1 10 42
M  V30 46 1 13 43
M  V30 47 1 14 44
M  V30 48 1 18 45
M  V30 49 1 22 46
M  V30 50 1 23 47
M  V30 51 1 23 48
M  V30 52 1 23 49
M  V30 53 1 24 50
M  V30 54 1 24 51
M  V30 55 1 24 52
M  V30 56 1 30 53
M  V30 END BOND
M  V30 END CTAB
M  END
>  <Dataset>  (856) 
ChEMBL_Kinases

>  <Ligand_Instance>  (856) 
nan

>  <PDB_ID>  (856) 
nan

>  <Standardized_SMILES>  (856) 
CC(C)n1c(O)c(C2c3cc(Cl)ccc3Oc3[nH]c(=O)n(C(C)C)c(=O)c32)c(=O)[nH]c1=O

>  <Name>  (856) 
nan

>  <Pocket>  (856) 
nan

>  <ATP_Site>  (856) 
nan

>  <Peripheral>  (856) 
nan

>  <Num_H_Atoms_ProtBoundConf>  (856) 
nan

>  <Num_Resolved_Atoms>  (856) 
nan

>  <Num_Not_Resolved_Atoms>  (856) 
nan

$$$$
CHEMBL1502264
     RDKit          3D

  0  0  0  0  0  0  0  0  0  0999 V3000
M  V30 BEGIN CTAB
M  V30 COUNTS 54 56 0 0 0
M  V30 BEGIN ATOM
M  V30 1 C 0.766796 -2.553933 4.478796 0
M  V30 2 C 2.039625 -1.832271 4.154875 0
M  V30 3 C 2.841866 -1.306863 5.106051 0
M  V30 4 C 4.006142 -0.665343 4.747132 0
M  V30 5 C 4.461554 -0.495996 3.438178 0
M  V30 6 C 3.697415 -0.998235 2.419020 0
M  V30 7 C 3.749799 -1.124111 0.952143 0
M  V30 8 O 4.290843 -1.878155 0.131782 0
M  V30 9 N 2.908554 -0.026640 0.467007 0
M  V30 10 C 2.511042 0.349402 -0.946355 0
M  V30 11 C 2.744073 1.758253 -1.201544 0
M  V30 12 C 2.084037 2.745710 -0.377645 0
M  V30 13 O 1.004351 3.337824 -0.803535 0
M  V30 14 O 2.420234 3.216774 0.888517 0
M  V30 15 C 1.047817 -0.000253 -0.954671 0
M  V30 16 C 0.140910 0.504296 0.020910 0
M  V30 17 C -1.177828 0.039469 0.005497 0
M  V30 18 C -1.637626 -0.901234 -0.909346 0
M  V30 19 O -2.905863 -1.109382 -0.614916 0
M  V30 20 C -3.939850 -1.927660 -0.823726 0
M  V30 21 C -5.260338 -1.486604 -0.217249 0
M  V30 22 C -5.929324 -0.641705 -1.303155 0
M  V30 23 C -5.272968 -1.070180 -2.619803 0
M  V30 24 C -4.355401 -2.226380 -2.295679 0
M  V30 25 C -0.708093 -1.332854 -1.810039 0
M  V30 26 C 0.612287 -0.937687 -1.884038 0
M  V30 27 C 2.506576 -1.647028 2.852645 0
M  V30 28 N 1.683129 -2.208691 1.887626 0 CHG=1 VAL=4
M  V30 29 O 0.736183 -2.620294 1.177397 0
M  V30 30 O 1.267553 -2.965916 0.813809 0 CHG=-1 VAL=1
M  V30 31 H 0.154571 -2.750164 3.592168 0
M  V30 32 H 0.211192 -1.867755 5.123063 0
M  V30 33 H 0.918755 -3.438067 5.085055 0
M  V30 34 H 2.613280 -1.357909 6.157893 0
M  V30 35 H 4.728560 -0.210299 5.470556 0
M  V30 36 H 5.315410 -0.016361 3.004944 0
M  V30 37 H 2.399004 0.699056 1.035171 0
M  V30 38 H 3.084865 -0.282247 -1.665797 0
M  V30 39 H 3.854452 2.015888 -1.183147 0
M  V30 40 H 2.510440 2.036713 -2.290614 0
M  V30 41 H 1.735057 3.236704 1.621665 0
M  V30 42 H 0.479653 1.256814 0.753559 0
M  V30 43 H -1.725479 0.533969 0.845273 0
M  V30 44 H -3.692297 -2.972842 -0.475211 0
M  V30 45 H -5.928885 -2.377767 -0.147607 0
M  V30 46 H -5.180386 -1.002432 0.738059 0
M  V30 47 H -6.988656 -0.861746 -1.340538 0
M  V30 48 H -5.792523 0.400109 -1.061678 0
M  V30 49 H -4.719131 -0.270098 -3.042777 0
M  V30 50 H -6.060202 -1.399462 -3.342366 0
M  V30 51 H -3.479489 -2.338824 -2.888282 0
M  V30 52 H -5.021660 -3.164764 -2.270681 0
M  V30 53 H -1.142122 -2.047845 -2.486180 0
M  V30 54 H 1.283055 -1.338440 -2.603511 0
M  V30 END ATOM
M  V30 BEGIN BOND
M  V30 1 1 1 2
M  V30 2 2 2 3
M  V30 3 1 3 4
M  V30 4 2 4 5
M  V30 5 1 5 6
M  V30 6 1 6 7
M  V30 7 2 7 8
M  V30 8 1 7 9
M  V30 9 1 9 10
M  V30 10 1 10 11
M  V30 11 1 11 12
M  V30 12 2 12 13
M  V30 13 1 12 14
M  V30 14 1 10 15
M  V30 15 2 15 16
M  V30 16 1 16 17
M  V30 17 2 17 18
M  V30 18 1 18 19
M  V30 19 1 19 20
M  V30 20 1 20 21
M  V30 21 1 21 22
M  V30 22 1 22 23
M  V30 23 1 23 24
M  V30 24 1 18 25
M  V30 25 2 25 26
M  V30 26 2 6 27
M  V30 27 1 27 28
M  V30 28 2 28 29
M  V30 29 1 28 30
M  V30 30 1 27 2
M  V30 31 1 26 15
M  V30 32 1 24 20
M  V30 33 1 1 31
M  V30 34 1 1 32
M  V30 35 1 1 33
M  V30 36 1 3 34
M  V30 37 1 4 35
M  V30 38 1 5 36
M  V30 39 1 9 37
M  V30 40 1 10 38
M  V30 41 1 11 39
M  V30 42 1 11 40
M  V30 43 1 14 41
M  V30 44 1 16 42
M  V30 45 1 17 43
M  V30 46 1 20 44
M  V30 47 1 21 45
M  V30 48 1 21 46
M  V30 49 1 22 47
M  V30 50 1 22 48
M  V30 51 1 23 49
M  V30 52 1 23 50
M  V30 53 1 24 51
M  V30 54 1 24 52
M  V30 55 1 25 53
M  V30 56 1 26 54
M  V30 END BOND
M  V30 END CTAB
M  END
>  <Dataset>  (857) 
ChEMBL_Kinases

>  <Ligand_Instance>  (857) 
nan

>  <PDB_ID>  (857) 
nan

>  <Standardized_SMILES>  (857) 
Cc1cccc(C(=O)NC(CC(=O)O)c2ccc(OC3CCCC3)cc2)c1[N+](=O)[O-]

>  <Name>  (857) 
nan

>  <Pocket>  (857) 
nan

>  <ATP_Site>  (857) 
nan

>  <Peripheral>  (857) 
nan

>  <Num_H_Atoms_ProtBoundConf>  (857) 
nan

>  <Num_Resolved_Atoms>  (857) 
nan

>  <Num_Not_Resolved_Atoms>  (857) 
nan

$$$$
CHEMBL15023
     RDKit          3D

  0  0  0  0  0  0  0  0  0  0999 V3000
M  V30 BEGIN CTAB
M  V30 COUNTS 52 54 0 0 0
M  V30 BEGIN ATOM
M  V30 1 O -1.474914 -5.496941 2.755493 0
M  V30 2 C -1.071909 -4.771132 1.780668 0
M  V30 3 C -0.706050 -3.342113 2.140368 0
M  V30 4 C 0.733086 -3.228182 2.472056 0
M  V30 5 C 1.291241 -1.940143 2.927583 0
M  V30 6 N 1.114739 -0.839838 2.005111 0
M  V30 7 C 2.053887 0.236486 2.397197 0
M  V30 8 C 2.178968 1.240016 1.288782 0
M  V30 9 C 0.817663 1.469828 0.743157 0
M  V30 10 O 0.568046 0.467810 -0.194020 0
M  V30 11 C 0.596269 2.771746 0.081592 0
M  V30 12 C 1.460436 3.833169 -0.102402 0
M  V30 13 C 1.024635 4.964871 -0.757958 0
M  V30 14 C -0.259927 5.077010 -1.243420 0
M  V30 15 C -1.141417 4.014793 -1.064874 0
M  V30 16 C -2.507130 4.215075 -1.612958 0
M  V30 17 F -2.548060 4.392139 -2.962940 0
M  V30 18 F -3.243454 3.070714 -1.277126 0
M  V30 19 F -3.133052 5.256367 -0.917955 0
M  V30 20 C -0.696118 2.883128 -0.406334 0
M  V30 21 C -0.147310 1.248526 1.897210 0
M  V30 22 C -0.208861 -0.229873 2.185312 0
M  V30 23 C -0.983378 -5.318518 0.434189 0
M  V30 24 C -0.545944 -4.618341 -0.668632 0
M  V30 25 C -0.465339 -5.132782 -1.943886 0
M  V30 26 C -0.853618 -6.460100 -2.144967 0
M  V30 27 F -0.806965 -7.051611 -3.371049 0
M  V30 28 C -1.290651 -7.164085 -1.053313 0
M  V30 29 C -1.363701 -6.623441 0.229524 0
M  V30 30 H -0.935146 -2.785540 1.178674 0
M  V30 31 H -1.323601 -3.039318 2.988024 0
M  V30 32 H 0.921416 -4.035050 3.260544 0
M  V30 33 H 1.371280 -3.613868 1.597947 0
M  V30 34 H 2.403759 -2.085030 3.079839 0
M  V30 35 H 0.883337 -1.648906 3.943624 0
M  V30 36 H 1.646378 0.701762 3.294123 0
M  V30 37 H 3.036011 -0.212801 2.675042 0
M  V30 38 H 2.884362 0.792227 0.549409 0
M  V30 39 H 2.647593 2.180444 1.670701 0
M  V30 40 H 1.304423 0.437336 -0.859968 0
M  V30 41 H 2.440157 3.661269 0.305918 0
M  V30 42 H 1.785138 5.728236 -0.842919 0
M  V30 43 H -0.535700 5.982673 -1.743879 0
M  V30 44 H -1.510557 2.147677 -0.356509 0
M  V30 45 H 0.212313 1.861461 2.744352 0
M  V30 46 H -1.150896 1.627722 1.553693 0
M  V30 47 H -0.473055 -0.328885 3.255667 0
M  V30 48 H -0.961031 -0.628138 1.506983 0
M  V30 49 H -0.239732 -3.595397 -0.542906 0
M  V30 50 H -0.116551 -4.549826 -2.775394 0
M  V30 51 H -1.595773 -8.195199 -1.191292 0
M  V30 52 H -1.720958 -7.223973 1.075608 0
M  V30 END ATOM
M  V30 BEGIN BOND
M  V30 1 2 1 2
M  V30 2 1 2 3
M  V30 3 1 3 4
M  V30 4 1 4 5
M  V30 5 1 5 6
M  V30 6 1 6 7
M  V30 7 1 7 8
M  V30 8 1 8 9
M  V30 9 1 9 10
M  V30 10 1 9 11
M  V30 11 2 11 12
M  V30 12 1 12 13
M  V30 13 2 13 14
M  V30 14 1 14 15
M  V30 15 1 15 16
M  V30 16 1 16 17
M  V30 17 1 16 18
M  V30 18 1 16 19
M  V30 19 2 15 20
M  V30 20 1 9 21
M  V30 21 1 21 22
M  V30 22 1 2 23
M  V30 23 2 23 24
M  V30 24 1 24 25
M  V30 25 2 25 26
M  V30 26 1 26 27
M  V30 27 1 26 28
M  V30 28 2 28 29
M  V30 29 1 22 6
M  V30 30 1 29 23
M  V30 31 1 20 11
M  V30 32 1 3 30
M  V30 33 1 3 31
M  V30 34 1 4 32
M  V30 35 1 4 33
M  V30 36 1 5 34
M  V30 37 1 5 35
M  V30 38 1 7 36
M  V30 39 1 7 37
M  V30 40 1 8 38
M  V30 41 1 8 39
M  V30 42 1 10 40
M  V30 43 1 12 41
M  V30 44 1 13 42
M  V30 45 1 14 43
M  V30 46 1 20 44
M  V30 47 1 21 45
M  V30 48 1 21 46
M  V30 49 1 22 47
M  V30 50 1 22 48
M  V30 51 1 24 49
M  V30 52 1 25 50
M  V30 53 1 28 51
M  V30 54 1 29 52
M  V30 END BOND
M  V30 END CTAB
M  END
>  <Dataset>  (858) 
ChEMBL_Kinases

>  <Ligand_Instance>  (858) 
nan

>  <PDB_ID>  (858) 
nan

>  <Standardized_SMILES>  (858) 
O=C(CCCN1CCC(O)(c2cccc(C(F)(F)F)c2)CC1)c1ccc(F)cc1

>  <Name>  (858) 
TRIFLUPERIDOL

>  <Pocket>  (858) 
nan

>  <ATP_Site>  (858) 
nan

>  <Peripheral>  (858) 
nan

>  <Num_H_Atoms_ProtBoundConf>  (858) 
nan

>  <Num_Resolved_Atoms>  (858) 
nan

>  <Num_Not_Resolved_Atoms>  (858) 
nan

$$$$
CHEMBL1502303
     RDKit          3D

  0  0  0  0  0  0  0  0  0  0999 V3000
M  V30 BEGIN CTAB
M  V30 COUNTS 26 28 0 0 0
M  V30 BEGIN ATOM
M  V30 1 O -1.038105 -3.222947 3.795986 0
M  V30 2 C -0.294547 -3.182240 2.769093 0
M  V30 3 N 0.661503 -4.155496 2.389726 0
M  V30 4 C 1.323709 -3.778449 1.163098 0
M  V30 5 O 2.221410 -4.412853 0.551180 0
M  V30 6 C 0.714366 -2.502845 0.805313 0
M  V30 7 C 0.976297 -1.771087 -0.279083 0
M  V30 8 C 0.332915 -0.481387 -0.588400 0
M  V30 9 C -0.242993 -0.257386 -1.800704 0
M  V30 10 N -0.714506 1.003281 -1.794489 0
M  V30 11 C -0.468456 1.615700 -0.621703 0
M  V30 12 C -0.725122 2.872542 -0.116125 0
M  V30 13 C -0.308048 3.175387 1.159933 0
M  V30 14 C 0.356348 2.239744 1.924381 0
M  V30 15 Br 0.912252 2.706387 3.669271 0
M  V30 16 C 0.623627 0.975719 1.440125 0
M  V30 17 C 0.195935 0.694742 0.160626 0
M  V30 18 N -0.250125 -2.170039 1.781994 0
M  V30 19 H 0.845661 -5.023267 2.937683 0
M  V30 20 H 1.720434 -2.173852 -0.967524 0
M  V30 21 H -0.343320 -0.914827 -2.655760 0
M  V30 22 H -1.218467 1.462839 -2.608890 0
M  V30 23 H -1.242012 3.523464 -0.778966 0
M  V30 24 H -0.527165 4.167594 1.521021 0
M  V30 25 H 1.148976 0.217519 2.014922 0
M  V30 26 H -0.884609 -1.345171 1.845435 0
M  V30 END ATOM
M  V30 BEGIN BOND
M  V30 1 2 1 2
M  V30 2 1 2 3
M  V30 3 1 3 4
M  V30 4 2 4 5
M  V30 5 1 4 6
M  V30 6 2 6 7
M  V30 7 1 7 8
M  V30 8 2 8 9
M  V30 9 1 9 10
M  V30 10 1 10 11
M  V30 11 2 11 12
M  V30 12 1 12 13
M  V30 13 2 13 14
M  V30 14 1 14 15
M  V30 15 1 14 16
M  V30 16 2 16 17
M  V30 17 1 6 18
M  V30 18 1 18 2
M  V30 19 1 17 8
M  V30 20 1 17 11
M  V30 21 1 3 19
M  V30 22 1 7 20
M  V30 23 1 9 21
M  V30 24 1 10 22
M  V30 25 1 12 23
M  V30 26 1 13 24
M  V30 27 1 16 25
M  V30 28 1 18 26
M  V30 END BOND
M  V30 END CTAB
M  END
>  <Dataset>  (859) 
ChEMBL_Kinases

>  <Ligand_Instance>  (859) 
nan

>  <PDB_ID>  (859) 
nan

>  <Standardized_SMILES>  (859) 
O=C1NC(=O)/C(=C/c2c[nH]c3ccc(Br)cc23)N1

>  <Name>  (859) 
nan

>  <Pocket>  (859) 
nan

>  <ATP_Site>  (859) 
nan

>  <Peripheral>  (859) 
nan

>  <Num_H_Atoms_ProtBoundConf>  (859) 
nan

>  <Num_Resolved_Atoms>  (859) 
nan

>  <Num_Not_Resolved_Atoms>  (859) 
nan

$$$$
CHEMBL1502322
     RDKit          3D

  0  0  0  0  0  0  0  0  0  0999 V3000
M  V30 BEGIN CTAB
M  V30 COUNTS 39 41 0 0 0
M  V30 BEGIN ATOM
M  V30 1 C -0.176257 -4.410263 1.694831 0
M  V30 2 C 1.070970 -4.650635 0.860176 0
M  V30 3 C 1.797533 -3.366582 0.612887 0
M  V30 4 C 2.754627 -3.006900 1.540039 0
M  V30 5 C 3.505736 -1.851857 1.446590 0
M  V30 6 C 3.254804 -1.045172 0.355902 0
M  V30 7 C 2.308645 -1.362804 -0.596353 0
M  V30 8 N 1.992225 -0.589509 -1.742220 0
M  V30 9 S 1.816408 1.113712 -1.465188 0
M  V30 10 O 3.089568 1.733558 -1.009466 0
M  V30 11 O 1.445655 1.742739 -2.790254 0
M  V30 12 C 0.490555 1.409470 -0.336758 0
M  V30 13 C -0.780624 1.590010 -0.863161 0
M  V30 14 C -1.900871 1.828354 -0.090018 0
M  V30 15 C -1.706788 1.883883 1.287485 0
M  V30 16 C -0.455524 1.708461 1.841366 0
M  V30 17 C 0.635876 1.473406 1.043695 0
M  V30 18 O -0.603710 1.816760 3.142068 0
M  V30 19 C -1.886758 2.049708 3.402568 0
M  V30 20 O -2.357489 2.204287 4.577037 0
M  V30 21 N -2.615639 2.100243 2.273591 0
M  V30 22 C -4.019841 2.324812 2.084477 0
M  V30 23 C 1.572878 -2.535697 -0.465822 0
M  V30 24 H -0.613814 -5.413566 1.878635 0
M  V30 25 H 0.120697 -3.933208 2.656274 0
M  V30 26 H -0.955255 -3.839732 1.148682 0
M  V30 27 H 0.765648 -5.121680 -0.102108 0
M  V30 28 H 1.704404 -5.351489 1.414417 0
M  V30 29 H 2.951462 -3.646178 2.401696 0
M  V30 30 H 4.259694 -1.548989 2.158593 0
M  V30 31 H 3.801643 -0.127293 0.215451 0
M  V30 32 H 1.877440 -1.049770 -2.689393 0
M  V30 33 H -0.927463 1.546190 -1.933736 0
M  V30 34 H -2.854762 1.959718 -0.549444 0
M  V30 35 H 1.616307 1.332907 1.430058 0
M  V30 36 H -4.227347 2.804445 1.095351 0
M  V30 37 H -4.360410 3.055671 2.849723 0
M  V30 38 H -4.616961 1.376054 2.148186 0
M  V30 39 H 0.813700 -2.843869 -1.179740 0
M  V30 END ATOM
M  V30 BEGIN BOND
M  V30 1 1 1 2
M  V30 2 1 2 3
M  V30 3 2 3 4
M  V30 4 1 4 5
M  V30 5 2 5 6
M  V30 6 1 6 7
M  V30 7 1 7 8
M  V30 8 1 8 9
M  V30 9 2 9 10
M  V30 10 2 9 11
M  V30 11 1 9 12
M  V30 12 2 12 13
M  V30 13 1 13 14
M  V30 14 2 14 15
M  V30 15 1 15 16
M  V30 16 2 16 17
M  V30 17 1 16 18
M  V30 18 1 18 19
M  V30 19 2 19 20
M  V30 20 1 19 21
M  V30 21 1 21 22
M  V30 22 2 7 23
M  V30 23 1 23 3
M  V30 24 1 17 12
M  V30 25 1 21 15
M  V30 26 1 1 24
M  V30 27 1 1 25
M  V30 28 1 1 26
M  V30 29 1 2 27
M  V30 30 1 2 28
M  V30 31 1 4 29
M  V30 32 1 5 30
M  V30 33 1 6 31
M  V30 34 1 8 32
M  V30 35 1 13 33
M  V30 36 1 14 34
M  V30 37 1 17 35
M  V30 38 1 22 36
M  V30 39 1 22 37
M  V30 40 1 22 38
M  V30 41 1 23 39
M  V30 END BOND
M  V30 END CTAB
M  END
>  <Dataset>  (860) 
ChEMBL_Kinases

>  <Ligand_Instance>  (860) 
nan

>  <PDB_ID>  (860) 
nan

>  <Standardized_SMILES>  (860) 
CCc1cccc(NS(=O)(=O)c2ccc3c(c2)oc(=O)n3C)c1

>  <Name>  (860) 
nan

>  <Pocket>  (860) 
nan

>  <ATP_Site>  (860) 
nan

>  <Peripheral>  (860) 
nan

>  <Num_H_Atoms_ProtBoundConf>  (860) 
nan

>  <Num_Resolved_Atoms>  (860) 
nan

>  <Num_Not_Resolved_Atoms>  (860) 
nan

$$$$
CHEMBL1502402
     RDKit          3D

  0  0  0  0  0  0  0  0  0  0999 V3000
M  V30 BEGIN CTAB
M  V30 COUNTS 55 57 0 0 0
M  V30 BEGIN ATOM
M  V30 1 C 3.423021 -1.864343 2.555841 0
M  V30 2 C 3.551939 -3.108739 1.708560 0
M  V30 3 O 2.572194 -3.146914 0.675022 0
M  V30 4 C 2.493575 -2.173138 -0.282039 0
M  V30 5 O 3.391485 -1.292540 -0.091534 0
M  V30 6 C 1.492431 -2.170958 -1.375009 0
M  V30 7 C 0.326355 -1.569812 -1.179495 0
M  V30 8 N -0.200688 -0.882370 -0.070971 0
M  V30 9 C -0.026654 0.515672 0.110593 0
M  V30 10 O 0.648103 0.926846 -0.873617 0
M  V30 11 C -0.505399 1.356953 1.190755 0
M  V30 12 C -0.181641 2.648664 1.087113 0
M  V30 13 C 0.611563 3.213251 -0.041813 0
M  V30 14 N -0.609503 3.560681 2.096784 0
M  V30 15 C -1.290312 3.276851 3.124285 0
M  V30 16 S -1.798792 4.460968 4.358600 0
M  V30 17 N -1.649203 1.912124 3.252282 0
M  V30 18 C -1.295808 0.851584 2.342939 0
M  V30 19 C -2.538808 0.265151 1.836334 0
M  V30 20 C -3.178037 0.962172 0.833872 0
M  V30 21 C -4.346620 0.453753 0.307670 0
M  V30 22 C -4.886655 -0.730906 0.760471 0
M  V30 23 C -4.186331 -1.364756 1.763944 0
M  V30 24 C -2.996800 -0.944361 2.371100 0
M  V30 25 C -2.340001 -1.693295 3.441329 0
M  V30 26 F -2.225605 -0.968840 4.637317 0
M  V30 27 F -3.222971 -2.731811 3.787210 0
M  V30 28 F -1.174676 -2.314048 3.119618 0
M  V30 29 S -0.536441 -1.834144 -2.774611 0
M  V30 30 C 0.772637 -2.725819 -3.526068 0
M  V30 31 C 0.697390 -3.256885 -4.914784 0
M  V30 32 C 1.784892 -2.787771 -2.567423 0
M  V30 33 C 3.029042 -3.501774 -2.954065 0
M  V30 34 H 3.093734 -2.071122 3.589785 0
M  V30 35 H 4.457535 -1.426078 2.634541 0
M  V30 36 H 2.692888 -1.137105 2.133752 0
M  V30 37 H 3.288426 -3.969939 2.383200 0
M  V30 38 H 4.561237 -3.270479 1.294657 0
M  V30 39 H -0.743349 -1.389999 0.660506 0
M  V30 40 H 0.095980 3.160826 -1.016014 0
M  V30 41 H 0.747731 4.313872 0.127946 0
M  V30 42 H 1.663079 2.829557 -0.057906 0
M  V30 43 H -0.642315 4.714044 5.155514 0
M  V30 44 H -2.224700 1.655551 4.084969 0
M  V30 45 H -0.673052 0.131210 2.915432 0
M  V30 46 H -2.788534 1.892760 0.451475 0
M  V30 47 H -4.880804 0.966767 -0.479146 0
M  V30 48 H -5.794892 -1.194573 0.401488 0
M  V30 49 H -4.588630 -2.312550 2.149085 0
M  V30 50 H 1.701923 -3.377225 -5.365617 0
M  V30 51 H 0.176254 -2.529274 -5.592838 0
M  V30 52 H 0.128512 -4.199257 -4.978934 0
M  V30 53 H 2.839990 -4.551944 -3.246918 0
M  V30 54 H 3.702532 -3.564136 -2.074628 0
M  V30 55 H 3.527855 -2.953286 -3.773313 0
M  V30 END ATOM
M  V30 BEGIN BOND
M  V30 1 1 1 2
M  V30 2 1 2 3
M  V30 3 1 3 4
M  V30 4 2 4 5
M  V30 5 1 4 6
M  V30 6 2 6 7
M  V30 7 1 7 8
M  V30 8 1 8 9
M  V30 9 2 9 10
M  V30 10 1 9 11
M  V30 11 2 11 12
M  V30 12 1 12 13
M  V30 13 1 12 14
M  V30 14 2 14 15
M  V30 15 1 15 16
M  V30 16 1 15 17
M  V30 17 1 17 18
M  V30 18 1 18 19
M  V30 19 2 19 20
M  V30 20 1 20 21
M  V30 21 2 21 22
M  V30 22 1 22 23
M  V30 23 2 23 24
M  V30 24 1 24 25
M  V30 25 1 25 26
M  V30 26 1 25 27
M  V30 27 1 25 28
M  V30 28 1 7 29
M  V30 29 1 29 30
M  V30 30 1 30 31
M  V30 31 2 30 32
M  V30 32 1 32 33
M  V30 33 1 32 6
M  V30 34 1 18 11
M  V30 35 1 24 19
M  V30 36 1 1 34
M  V30 37 1 1 35
M  V30 38 1 1 36
M  V30 39 1 2 37
M  V30 40 1 2 38
M  V30 41 1 8 39
M  V30 42 1 13 40
M  V30 43 1 13 41
M  V30 44 1 13 42
M  V30 45 1 16 43
M  V30 46 1 17 44
M  V30 47 1 18 45
M  V30 48 1 20 46
M  V30 49 1 21 47
M  V30 50 1 22 48
M  V30 51 1 23 49
M  V30 52 1 31 50
M  V30 53 1 31 51
M  V30 54 1 31 52
M  V30 55 1 33 53
M  V30 56 1 33 54
M  V30 57 1 33 55
M  V30 END BOND
M  V30 END CTAB
M  END
>  <Dataset>  (861) 
ChEMBL_Kinases

>  <Ligand_Instance>  (861) 
nan

>  <PDB_ID>  (861) 
nan

>  <Standardized_SMILES>  (861) 
CCOC(=O)c1c(NC(=O)C2=C(C)N=C(S)NC2c2ccccc2C(F)(F)F)sc(C)c1C

>  <Name>  (861) 
nan

>  <Pocket>  (861) 
nan

>  <ATP_Site>  (861) 
nan

>  <Peripheral>  (861) 
nan

>  <Num_H_Atoms_ProtBoundConf>  (861) 
nan

>  <Num_Resolved_Atoms>  (861) 
nan

>  <Num_Not_Resolved_Atoms>  (861) 
nan

$$$$
CHEMBL1502414
     RDKit          3D

  0  0  0  0  0  0  0  0  0  0999 V3000
M  V30 BEGIN CTAB
M  V30 COUNTS 47 50 0 0 0
M  V30 BEGIN ATOM
M  V30 1 O -1.940006 -0.611724 2.468437 0
M  V30 2 C -1.579841 -1.836762 2.442539 0
M  V30 3 C -0.184896 -1.868970 2.945966 0
M  V30 4 N 0.664417 -1.250098 1.978417 0
M  V30 5 C 0.852070 0.103844 2.092259 0
M  V30 6 O 0.261132 0.707498 3.046488 0
M  V30 7 N 1.621960 0.857220 1.264628 0
M  V30 8 C 1.718803 2.256841 1.528422 0
M  V30 9 C 0.666592 3.111139 0.891066 0
M  V30 10 C 0.601709 3.079266 -0.590606 0
M  V30 11 C 1.699820 4.035619 -0.991185 0
M  V30 12 C 1.662430 5.003585 0.182464 0
M  V30 13 O 0.940598 4.437041 1.192927 0
M  V30 14 C 2.275121 0.289096 0.238244 0
M  V30 15 O 2.996401 0.897640 -0.559867 0
M  V30 16 C 2.127564 -1.063964 0.071332 0
M  V30 17 C 2.765188 -1.747295 -0.964946 0
M  V30 18 C 2.636004 -3.119550 -1.162065 0
M  V30 19 C 1.818333 -3.787459 -0.248663 0
M  V30 20 C 1.193215 -3.114102 0.768442 0
M  V30 21 C 1.331655 -1.762608 0.947341 0
M  V30 22 C -2.556191 -2.804503 1.963441 0
M  V30 23 C -3.756381 -2.274053 1.540235 0
M  V30 24 C -4.694344 -3.197970 1.087292 0
M  V30 25 C -4.499697 -4.556019 1.040901 0
M  V30 26 C -3.283920 -5.083458 1.471782 0
M  V30 27 C -2.363318 -4.164786 1.916693 0
M  V30 28 H -0.092224 -1.287158 3.913181 0
M  V30 29 H 0.033919 -2.936504 3.158950 0
M  V30 30 H 2.727448 2.676554 1.306660 0
M  V30 31 H 1.602867 2.414221 2.638609 0
M  V30 32 H -0.341705 2.833050 1.301940 0
M  V30 33 H -0.365973 3.555232 -0.889904 0
M  V30 34 H 0.618453 2.110334 -1.077481 0
M  V30 35 H 2.699069 3.565428 -1.078542 0
M  V30 36 H 1.463582 4.561542 -1.944806 0
M  V30 37 H 2.696710 5.341683 0.468355 0
M  V30 38 H 1.153074 5.939743 -0.196079 0
M  V30 39 H 3.393028 -1.160751 -1.649324 0
M  V30 40 H 3.178269 -3.532547 -2.000667 0
M  V30 41 H 1.759809 -4.851373 -0.458827 0
M  V30 42 H 0.589338 -3.721036 1.418320 0
M  V30 43 H -4.037967 -1.245930 1.522608 0
M  V30 44 H -5.671417 -2.819635 0.736770 0
M  V30 45 H -5.283854 -5.199872 0.674603 0
M  V30 46 H -3.080540 -6.141893 1.458390 0
M  V30 47 H -1.426219 -4.580827 2.256854 0
M  V30 END ATOM
M  V30 BEGIN BOND
M  V30 1 2 1 2
M  V30 2 1 2 3
M  V30 3 1 3 4
M  V30 4 1 4 5
M  V30 5 2 5 6
M  V30 6 1 5 7
M  V30 7 1 7 8
M  V30 8 1 8 9
M  V30 9 1 9 10
M  V30 10 1 10 11
M  V30 11 1 11 12
M  V30 12 1 12 13
M  V30 13 1 7 14
M  V30 14 2 14 15
M  V30 15 1 14 16
M  V30 16 2 16 17
M  V30 17 1 17 18
M  V30 18 2 18 19
M  V30 19 1 19 20
M  V30 20 2 20 21
M  V30 21 1 2 22
M  V30 22 2 22 23
M  V30 23 1 23 24
M  V30 24 2 24 25
M  V30 25 1 25 26
M  V30 26 2 26 27
M  V30 27 1 21 4
M  V30 28 1 27 22
M  V30 29 1 13 9
M  V30 30 1 21 16
M  V30 31 1 3 28
M  V30 32 1 3 29
M  V30 33 1 8 30
M  V30 34 1 8 31
M  V30 35 1 9 32
M  V30 36 1 10 33
M  V30 37 1 10 34
M  V30 38 1 11 35
M  V30 39 1 11 36
M  V30 40 1 12 37
M  V30 41 1 12 38
M  V30 42 1 17 39
M  V30 43 1 18 40
M  V30 44 1 19 41
M  V30 45 1 20 42
M  V30 46 1 23 43
M  V30 47 1 24 44
M  V30 48 1 25 45
M  V30 49 1 26 46
M  V30 50 1 27 47
M  V30 END BOND
M  V30 END CTAB
M  END
>  <Dataset>  (862) 
ChEMBL_Kinases

>  <Ligand_Instance>  (862) 
nan

>  <PDB_ID>  (862) 
nan

>  <Standardized_SMILES>  (862) 
O=C(Cn1c(=O)n(CC2CCCO2)c(=O)c2ccccc21)c1ccccc1

>  <Name>  (862) 
nan

>  <Pocket>  (862) 
nan

>  <ATP_Site>  (862) 
nan

>  <Peripheral>  (862) 
nan

>  <Num_H_Atoms_ProtBoundConf>  (862) 
nan

>  <Num_Resolved_Atoms>  (862) 
nan

>  <Num_Not_Resolved_Atoms>  (862) 
nan

$$$$
CHEMBL1502445
     RDKit          3D

  0  0  0  0  0  0  0  0  0  0999 V3000
M  V30 BEGIN CTAB
M  V30 COUNTS 31 31 0 0 0
M  V30 BEGIN ATOM
M  V30 1 C 0.249723 -2.261344 4.335186 0
M  V30 2 C -0.745601 -2.953780 3.425487 0
M  V30 3 O -0.472864 -2.563048 2.093362 0
M  V30 4 C 0.752434 -2.806807 1.478839 0
M  V30 5 O 1.694423 -3.395276 2.083720 0
M  V30 6 C 0.835837 -2.308253 0.053297 0
M  V30 7 O 2.104094 -2.619074 -0.425782 0
M  V30 8 N 0.559235 -0.910323 0.077523 0
M  V30 9 C 0.531915 0.022792 -0.994048 0
M  V30 10 O 0.793650 -0.449838 -2.149507 0
M  V30 11 C 0.232965 1.444639 -0.864063 0
M  V30 12 C -0.069832 2.115106 0.303303 0
M  V30 13 C -0.340108 3.468645 0.329457 0
M  V30 14 C -0.319732 4.223921 -0.825864 0
M  V30 15 N -0.023006 3.555947 -1.955078 0
M  V30 16 C 0.241694 2.238881 -1.992201 0
M  V30 17 C -0.163241 -3.112015 -0.750852 0
M  V30 18 F -1.425378 -2.905282 -0.228142 0
M  V30 19 F 0.070784 -4.484541 -0.575306 0
M  V30 20 F -0.186704 -2.815342 -2.077436 0
M  V30 21 H 1.186108 -2.853401 4.442563 0
M  V30 22 H -0.158278 -2.087493 5.348754 0
M  V30 23 H 0.581769 -1.274063 3.919389 0
M  V30 24 H -0.736450 -4.031122 3.581270 0
M  V30 25 H -1.745783 -2.561381 3.692557 0
M  V30 26 H 2.097640 -3.427732 -1.009276 0
M  V30 27 H 0.329831 -0.413800 0.992479 0
M  V30 28 H -0.090282 1.544082 1.211248 0
M  V30 29 H -0.573615 3.960792 1.263150 0
M  V30 30 H -0.521268 5.281304 -0.871011 0
M  V30 31 H 0.464678 1.853491 -2.997554 0
M  V30 END ATOM
M  V30 BEGIN BOND
M  V30 1 1 1 2
M  V30 2 1 2 3
M  V30 3 1 3 4
M  V30 4 2 4 5
M  V30 5 1 4 6
M  V30 6 1 6 7
M  V30 7 1 6 8
M  V30 8 1 8 9
M  V30 9 2 9 10
M  V30 10 1 9 11
M  V30 11 2 11 12
M  V30 12 1 12 13
M  V30 13 2 13 14
M  V30 14 1 14 15
M  V30 15 2 15 16
M  V30 16 1 6 17
M  V30 17 1 17 18
M  V30 18 1 17 19
M  V30 19 1 17 20
M  V30 20 1 16 11
M  V30 21 1 1 21
M  V30 22 1 1 22
M  V30 23 1 1 23
M  V30 24 1 2 24
M  V30 25 1 2 25
M  V30 26 1 7 26
M  V30 27 1 8 27
M  V30 28 1 12 28
M  V30 29 1 13 29
M  V30 30 1 14 30
M  V30 31 1 16 31
M  V30 END BOND
M  V30 END CTAB
M  END
>  <Dataset>  (863) 
ChEMBL_Kinases

>  <Ligand_Instance>  (863) 
nan

>  <PDB_ID>  (863) 
nan

>  <Standardized_SMILES>  (863) 
CCOC(=O)C(O)(NC(=O)c1cccnc1)C(F)(F)F

>  <Name>  (863) 
nan

>  <Pocket>  (863) 
nan

>  <ATP_Site>  (863) 
nan

>  <Peripheral>  (863) 
nan

>  <Num_H_Atoms_ProtBoundConf>  (863) 
nan

>  <Num_Resolved_Atoms>  (863) 
nan

>  <Num_Not_Resolved_Atoms>  (863) 
nan

$$$$
CHEMBL1502457
     RDKit          3D

  0  0  0  0  0  0  0  0  0  0999 V3000
M  V30 BEGIN CTAB
M  V30 COUNTS 51 53 0 0 0
M  V30 BEGIN ATOM
M  V30 1 C -0.032907 2.206147 6.441803 0
M  V30 2 C -0.020753 1.992702 4.947001 0
M  V30 3 N 0.524909 0.684550 4.591605 0
M  V30 4 C 0.587007 0.370019 3.205917 0
M  V30 5 O 0.184206 1.197364 2.345397 0
M  V30 6 C 1.145314 -0.964889 2.869913 0
M  V30 7 C 1.158618 -1.177320 1.350601 0
M  V30 8 C 2.019068 -0.081011 0.829999 0
M  V30 9 O 3.164390 0.133863 1.297301 0
M  V30 10 N 1.363012 0.626699 -0.212160 0
M  V30 11 C 1.869643 1.636442 -1.066886 0
M  V30 12 C 1.138755 2.264736 -2.051333 0
M  V30 13 C 1.628306 3.247646 -2.886024 0
M  V30 14 C 2.941076 3.651790 -2.749158 0
M  V30 15 F 3.392106 4.619043 -3.583978 0
M  V30 16 C 3.722521 3.057408 -1.778982 0
M  V30 17 C 3.170770 2.079719 -0.976662 0
M  V30 18 C 0.046329 0.093178 -0.221842 0
M  V30 19 O -0.940638 0.369640 -0.949691 0
M  V30 20 N -0.140501 -0.911374 0.766338 0
M  V30 21 C -1.319840 -1.614841 1.207435 0
M  V30 22 C -1.554970 -2.857588 0.439265 0
M  V30 23 C -2.344427 -2.744982 -0.710547 0
M  V30 24 C -2.592638 -3.875237 -1.461460 0
M  V30 25 C -2.108277 -5.130795 -1.152455 0
M  V30 26 O -2.404719 -6.219041 -1.961976 0
M  V30 27 C -3.213624 -5.963912 -3.093606 0
M  V30 28 C -1.327653 -5.224611 -0.009663 0
M  V30 29 C -1.051590 -4.106642 0.779079 0
M  V30 30 H 0.966891 2.526442 6.799282 0
M  V30 31 H -0.686968 3.109760 6.605574 0
M  V30 32 H -0.447992 1.356601 6.991148 0
M  V30 33 H -1.091155 2.077283 4.623564 0
M  V30 34 H 0.533044 2.822161 4.472103 0
M  V30 35 H 0.848681 0.027426 5.349308 0
M  V30 36 H 2.215207 -1.006185 3.162009 0
M  V30 37 H 0.616912 -1.751127 3.405899 0
M  V30 38 H 1.540982 -2.179806 1.151046 0
M  V30 39 H 0.110638 1.996717 -2.210069 0
M  V30 40 H 1.014066 3.705752 -3.638700 0
M  V30 41 H 4.734433 3.398713 -1.705126 0
M  V30 42 H 3.872908 1.688770 -0.257880 0
M  V30 43 H -2.239583 -0.969368 1.116188 0
M  V30 44 H -1.282517 -1.880815 2.279447 0
M  V30 45 H -2.756194 -1.776518 -1.006202 0
M  V30 46 H -3.218937 -3.712803 -2.349017 0
M  V30 47 H -2.644891 -5.185884 -3.681277 0
M  V30 48 H -3.317393 -6.869904 -3.727710 0
M  V30 49 H -4.157220 -5.495124 -2.806368 0
M  V30 50 H -0.922734 -6.198514 0.274057 0
M  V30 51 H -0.443967 -4.168983 1.672153 0
M  V30 END ATOM
M  V30 BEGIN BOND
M  V30 1 1 1 2
M  V30 2 1 2 3
M  V30 3 1 3 4
M  V30 4 2 4 5
M  V30 5 1 4 6
M  V30 6 1 6 7
M  V30 7 1 7 8
M  V30 8 2 8 9
M  V30 9 1 8 10
M  V30 10 1 10 11
M  V30 11 2 11 12
M  V30 12 1 12 13
M  V30 13 2 13 14
M  V30 14 1 14 15
M  V30 15 1 14 16
M  V30 16 2 16 17
M  V30 17 1 10 18
M  V30 18 2 18 19
M  V30 19 1 18 20
M  V30 20 1 20 21
M  V30 21 1 21 22
M  V30 22 2 22 23
M  V30 23 1 23 24
M  V30 24 2 24 25
M  V30 25 1 25 26
M  V30 26 1 26 27
M  V30 27 1 25 28
M  V30 28 2 28 29
M  V30 29 1 20 7
M  V30 30 1 29 22
M  V30 31 1 17 11
M  V30 32 1 1 30
M  V30 33 1 1 31
M  V30 34 1 1 32
M  V30 35 1 2 33
M  V30 36 1 2 34
M  V30 37 1 3 35
M  V30 38 1 6 36
M  V30 39 1 6 37
M  V30 40 1 7 38
M  V30 41 1 12 39
M  V30 42 1 13 40
M  V30 43 1 16 41
M  V30 44 1 17 42
M  V30 45 1 21 43
M  V30 46 1 21 44
M  V30 47 1 23 45
M  V30 48 1 24 46
M  V30 49 1 27 47
M  V30 50 1 27 48
M  V30 51 1 27 49
M  V30 52 1 28 50
M  V30 53 1 29 51
M  V30 END BOND
M  V30 END CTAB
M  END
>  <Dataset>  (864) 
ChEMBL_Kinases

>  <Ligand_Instance>  (864) 
nan

>  <PDB_ID>  (864) 
nan

>  <Standardized_SMILES>  (864) 
CCNC(=O)CC1C(=O)N(c2ccc(F)cc2)C(=O)N1Cc1ccc(OC)cc1

>  <Name>  (864) 
nan

>  <Pocket>  (864) 
nan

>  <ATP_Site>  (864) 
nan

>  <Peripheral>  (864) 
nan

>  <Num_H_Atoms_ProtBoundConf>  (864) 
nan

>  <Num_Resolved_Atoms>  (864) 
nan

>  <Num_Not_Resolved_Atoms>  (864) 
nan

$$$$
CHEMBL1502164
     RDKit          3D

  0  0  0  0  0  0  0  0  0  0999 V3000
M  V30 BEGIN CTAB
M  V30 COUNTS 59 64 0 0 0
M  V30 BEGIN ATOM
M  V30 1 C 3.453274 -3.146526 3.129072 0
M  V30 2 C 4.398243 -2.196943 2.759426 0
M  V30 3 C 3.999339 -0.873533 2.529458 0
M  V30 4 C 2.661202 -0.453788 2.657784 0
M  V30 5 C 2.634384 0.994716 2.370134 0
M  V30 6 N 2.969176 1.407512 1.064168 0
M  V30 7 N 4.294832 1.498061 0.881452 0
M  V30 8 N 4.538206 1.873370 -0.359300 0
M  V30 9 N 3.361527 2.010967 -0.929940 0
M  V30 10 C 2.348295 1.721745 -0.048941 0
M  V30 11 C 0.953453 1.799954 -0.416902 0
M  V30 12 C 0.233443 2.893641 0.343969 0
M  V30 13 C 0.692946 3.757594 1.315023 0
M  V30 14 C -0.186608 4.670457 1.853185 0
M  V30 15 C -1.505547 4.756129 1.461566 0
M  V30 16 C -1.977951 3.897691 0.490763 0
M  V30 17 C -1.105694 2.978465 -0.055858 0
M  V30 18 N 0.143708 0.663934 -0.479038 0
M  V30 19 C -0.207313 -0.100475 0.627701 0
M  V30 20 C -1.649818 -0.599062 0.361459 0
M  V30 21 N -1.526137 -1.436950 -0.813369 0
M  V30 22 C -2.103808 -2.744987 -0.918524 0
M  V30 23 N -2.141938 -3.726795 -1.885523 0
M  V30 24 C -2.824406 -4.788824 -1.491235 0
M  V30 25 C -2.934912 -5.857457 -2.388943 0
M  V30 26 C -3.619083 -6.986162 -2.062510 0
M  V30 27 C -4.251078 -7.181198 -0.852151 0
M  V30 28 C -4.162913 -6.151000 0.054489 0
M  V30 29 C -3.514234 -5.057670 -0.230076 0
M  V30 30 S -3.059283 -3.398896 0.526479 0
M  V30 31 C -0.797049 -1.001303 -1.982974 0
M  V30 32 C 0.443478 -0.200125 -1.599962 0
M  V30 33 C 1.803016 -1.455549 3.025505 0
M  V30 34 C 2.150148 -2.748674 3.257001 0
M  V30 35 H 3.640730 -4.188704 3.330934 0
M  V30 36 H 5.385142 -2.600142 2.685617 0
M  V30 37 H 4.904096 -0.312361 2.255952 0
M  V30 38 H 3.280725 1.470046 3.174318 0
M  V30 39 H 1.602494 1.324637 2.682620 0
M  V30 40 H 0.916621 2.242052 -1.468435 0
M  V30 41 H 1.731841 3.595100 1.530396 0
M  V30 42 H 0.261930 5.316563 2.617067 0
M  V30 43 H -2.149181 5.496522 1.923043 0
M  V30 44 H -3.016126 3.988320 0.204150 0
M  V30 45 H -1.581585 2.354538 -0.810951 0
M  V30 46 H 0.384129 -1.063090 0.616263 0
M  V30 47 H -0.274426 0.386115 1.592803 0
M  V30 48 H -2.021278 -1.147411 1.237353 0
M  V30 49 H -2.298751 0.256217 0.087047 0
M  V30 50 H -2.525734 -5.950020 -3.407465 0
M  V30 51 H -3.748620 -7.860950 -2.709672 0
M  V30 52 H -4.814012 -8.023054 -0.490435 0
M  V30 53 H -4.549256 -6.028562 1.053571 0
M  V30 54 H -0.552409 -1.801843 -2.677827 0
M  V30 55 H -1.481666 -0.266135 -2.499940 0
M  V30 56 H 1.194100 -0.966084 -1.252712 0
M  V30 57 H 0.767090 0.333840 -2.506509 0
M  V30 58 H 0.812241 -1.037114 3.113859 0
M  V30 59 H 1.289878 -3.351737 3.535111 0
M  V30 END ATOM
M  V30 BEGIN BOND
M  V30 1 2 1 2
M  V30 2 1 2 3
M  V30 3 2 3 4
M  V30 4 1 4 5
M  V30 5 1 5 6
M  V30 6 1 6 7
M  V30 7 2 7 8
M  V30 8 1 8 9
M  V30 9 2 9 10
M  V30 10 1 10 11
M  V30 11 1 11 12
M  V30 12 2 12 13
M  V30 13 1 13 14
M  V30 14 2 14 15
M  V30 15 1 15 16
M  V30 16 2 16 17
M  V30 17 1 11 18
M  V30 18 1 18 19
M  V30 19 1 19 20
M  V30 20 1 20 21
M  V30 21 1 21 22
M  V30 22 2 22 23
M  V30 23 1 23 24
M  V30 24 2 24 25
M  V30 25 1 25 26
M  V30 26 2 26 27
M  V30 27 1 27 28
M  V30 28 2 28 29
M  V30 29 1 29 30
M  V30 30 1 21 31
M  V30 31 1 31 32
M  V30 32 1 4 33
M  V30 33 2 33 34
M  V30 34 1 34 1
M  V30 35 1 10 6
M  V30 36 1 17 12
M  V30 37 1 32 18
M  V30 38 1 30 22
M  V30 39 1 29 24
M  V30 40 1 1 35
M  V30 41 1 2 36
M  V30 42 1 3 37
M  V30 43 1 5 38
M  V30 44 1 5 39
M  V30 45 1 11 40
M  V30 46 1 13 41
M  V30 47 1 14 42
M  V30 48 1 15 43
M  V30 49 1 16 44
M  V30 50 1 17 45
M  V30 51 1 19 46
M  V30 52 1 19 47
M  V30 53 1 20 48
M  V30 54 1 20 49
M  V30 55 1 25 50
M  V30 56 1 26 51
M  V30 57 1 27 52
M  V30 58 1 28 53
M  V30 59 1 31 54
M  V30 60 1 31 55
M  V30 61 1 32 56
M  V30 62 1 32 57
M  V30 63 1 33 58
M  V30 64 1 34 59
M  V30 END BOND
M  V30 END CTAB
M  END
>  <Dataset>  (865) 
ChEMBL_Kinases

>  <Ligand_Instance>  (865) 
nan

>  <PDB_ID>  (865) 
nan

>  <Standardized_SMILES>  (865) 
c1ccc(Cn2nnnc2C(c2ccccc2)N2CCN(c3nc4ccccc4s3)CC2)cc1

>  <Name>  (865) 
nan

>  <Pocket>  (865) 
nan

>  <ATP_Site>  (865) 
nan

>  <Peripheral>  (865) 
nan

>  <Num_H_Atoms_ProtBoundConf>  (865) 
nan

>  <Num_Resolved_Atoms>  (865) 
nan

>  <Num_Not_Resolved_Atoms>  (865) 
nan

$$$$
CHEMBL1494857
     RDKit          3D

  0  0  0  0  0  0  0  0  0  0999 V3000
M  V30 BEGIN CTAB
M  V30 COUNTS 58 62 0 0 0
M  V30 BEGIN ATOM
M  V30 1 C 3.819984 -0.577029 4.131517 0
M  V30 2 N 2.763021 -1.251135 3.416341 0
M  V30 3 C 2.905087 -2.553338 3.058436 0
M  V30 4 O 3.920546 -3.253191 3.302598 0
M  V30 5 N 1.922607 -3.171213 2.400022 0
M  V30 6 C 0.751043 -2.581812 2.047056 0
M  V30 7 O -0.162572 -3.187539 1.436261 0
M  V30 8 C 0.535872 -1.274010 2.369311 0
M  V30 9 C 1.604501 -0.695554 3.056953 0
M  V30 10 N 1.248289 0.581929 3.345733 0
M  V30 11 C -0.016858 0.759352 2.833095 0
M  V30 12 N -0.694043 1.999385 2.955930 0
M  V30 13 C -0.680949 3.059712 1.959481 0
M  V30 14 C -0.065397 4.259871 2.692121 0
M  V30 15 O -0.855729 4.526365 3.813536 0
M  V30 16 C -0.774533 3.502942 4.773105 0
M  V30 17 C -1.471446 2.290404 4.172167 0
M  V30 18 N -0.460152 -0.353279 2.238880 0
M  V30 19 C -1.735962 -0.594869 1.661384 0
M  V30 20 C -2.069623 0.008212 0.366780 0
M  V30 21 O -3.366798 -0.440015 -0.012609 0
M  V30 22 C -1.167275 0.047049 -0.785205 0
M  V30 23 O -0.820800 -0.958504 -1.540626 0
M  V30 24 C -0.482536 -1.939093 -2.276014 0
M  V30 25 C 0.301317 -3.019434 -1.941831 0
M  V30 26 C 0.674213 -4.091093 -2.717026 0
M  V30 27 C 0.151419 -4.007240 -4.008957 0
M  V30 28 C 0.449148 -5.036019 -4.874254 0
M  V30 29 C -0.026393 -5.047740 -6.169434 0
M  V30 30 C -0.815362 -4.032825 -6.643376 0
M  V30 31 C -1.125598 -2.988495 -5.782685 0
M  V30 32 C -0.641505 -2.987208 -4.479536 0
M  V30 33 C -0.956944 -1.941982 -3.589813 0
M  V30 34 H 3.455952 -0.131086 5.086510 0
M  V30 35 H 4.280749 0.238433 3.538189 0
M  V30 36 H 4.634661 -1.307384 4.333528 0
M  V30 37 H 2.005928 -4.193643 2.106909 0
M  V30 38 H -1.704879 3.381412 1.702826 0
M  V30 39 H -0.077002 2.792939 1.073667 0
M  V30 40 H -0.062242 5.163812 2.075601 0
M  V30 41 H 0.973021 4.021913 2.995155 0
M  V30 42 H 0.308895 3.238691 4.863479 0
M  V30 43 H -1.223064 3.873048 5.692644 0
M  V30 44 H -1.537426 1.434670 4.832015 0
M  V30 45 H -2.454009 2.636348 3.788791 0
M  V30 46 H -1.891294 -1.716189 1.556060 0
M  V30 47 H -2.573656 -0.334414 2.398772 0
M  V30 48 H -2.365197 1.151505 0.583776 0
M  V30 49 H -3.777268 0.212599 -0.631929 0
M  V30 50 H -0.189992 0.564322 -0.345792 0
M  V30 51 H -1.511921 0.922323 -1.500437 0
M  V30 52 H 0.713572 -3.032101 -0.950159 0
M  V30 53 H 1.287745 -4.884418 -2.350428 0
M  V30 54 H 1.081462 -5.876725 -4.539378 0
M  V30 55 H 0.239775 -5.865481 -6.789010 0
M  V30 56 H -1.194523 -4.027393 -7.661737 0
M  V30 57 H -1.750041 -2.183085 -6.150495 0
M  V30 58 H -1.581210 -1.170552 -4.030630 0
M  V30 END ATOM
M  V30 BEGIN BOND
M  V30 1 1 1 2
M  V30 2 1 2 3
M  V30 3 2 3 4
M  V30 4 1 3 5
M  V30 5 1 5 6
M  V30 6 2 6 7
M  V30 7 1 6 8
M  V30 8 2 8 9
M  V30 9 1 9 10
M  V30 10 2 10 11
M  V30 11 1 11 12
M  V30 12 1 12 13
M  V30 13 1 13 14
M  V30 14 1 14 15
M  V30 15 1 15 16
M  V30 16 1 16 17
M  V30 17 1 11 18
M  V30 18 1 18 19
M  V30 19 1 19 20
M  V30 20 1 20 21
M  V30 21 1 20 22
M  V30 22 1 22 23
M  V30 23 1 23 24
M  V30 24 2 24 25
M  V30 25 1 25 26
M  V30 26 2 26 27
M  V30 27 1 27 28
M  V30 28 2 28 29
M  V30 29 1 29 30
M  V30 30 2 30 31
M  V30 31 1 31 32
M  V30 32 2 32 33
M  V30 33 1 9 2
M  V30 34 1 17 12
M  V30 35 1 33 24
M  V30 36 1 18 8
M  V30 37 1 32 27
M  V30 38 1 1 34
M  V30 39 1 1 35
M  V30 40 1 1 36
M  V30 41 1 5 37
M  V30 42 1 13 38
M  V30 43 1 13 39
M  V30 44 1 14 40
M  V30 45 1 14 41
M  V30 46 1 16 42
M  V30 47 1 16 43
M  V30 48 1 17 44
M  V30 49 1 17 45
M  V30 50 1 19 46
M  V30 51 1 19 47
M  V30 52 1 20 48
M  V30 53 1 21 49
M  V30 54 1 22 50
M  V30 55 1 22 51
M  V30 56 1 25 52
M  V30 57 1 26 53
M  V30 58 1 28 54
M  V30 59 1 29 55
M  V30 60 1 30 56
M  V30 61 1 31 57
M  V30 62 1 33 58
M  V30 END BOND
M  V30 END CTAB
M  END
>  <Dataset>  (866) 
ChEMBL_Kinases

>  <Ligand_Instance>  (866) 
nan

>  <PDB_ID>  (866) 
nan

>  <Standardized_SMILES>  (866) 
Cn1c(=O)[nH]c(=O)c2c1nc(N1CCOCC1)n2CC(O)COc1ccc2ccccc2c1

>  <Name>  (866) 
nan

>  <Pocket>  (866) 
nan

>  <ATP_Site>  (866) 
nan

>  <Peripheral>  (866) 
nan

>  <Num_H_Atoms_ProtBoundConf>  (866) 
nan

>  <Num_Resolved_Atoms>  (866) 
nan

>  <Num_Not_Resolved_Atoms>  (866) 
nan

$$$$
CHEMBL1494778
     RDKit          3D

  0  0  0  0  0  0  0  0  0  0999 V3000
M  V30 BEGIN CTAB
M  V30 COUNTS 48 51 0 0 0
M  V30 BEGIN ATOM
M  V30 1 N 2.430049 4.833293 2.181606 0
M  V30 2 C 1.606838 3.675955 2.110161 0
M  V30 3 N 1.949200 2.970323 1.122352 0
M  V30 4 C 1.360903 1.731756 0.714948 0 CFG=2
M  V30 5 C 0.975783 1.884211 -0.706606 0
M  V30 6 C -0.133175 1.644926 -1.461579 0
M  V30 7 C -0.220182 1.871747 -2.812705 0
M  V30 8 C 0.849615 2.375682 -3.520472 0
M  V30 9 Cl 0.616999 2.618199 -5.219420 0
M  V30 10 C 1.980124 2.629731 -2.803130 0
M  V30 11 C 2.047287 2.391916 -1.430260 0
M  V30 12 N 0.303112 1.287453 1.591920 0
M  V30 13 C -0.536348 0.175262 1.726744 0
M  V30 14 C -1.846651 -0.115730 1.427418 0
M  V30 15 C -2.384519 -1.355226 1.689008 0
M  V30 16 C -1.640607 -2.363323 2.261978 0
M  V30 17 S -2.541049 -3.842433 2.497531 0
M  V30 18 O -3.953522 -3.583784 2.871670 0
M  V30 19 O -1.853240 -4.583687 3.624765 0
M  V30 20 N -2.400676 -4.798235 1.074648 0
M  V30 21 C -1.172610 -5.281798 0.592721 0
M  V30 22 N -0.000453 -5.048360 1.188690 0
M  V30 23 C 1.171338 -5.508280 0.731274 0
M  V30 24 C 1.190999 -6.257452 -0.402822 0
M  V30 25 C 0.010958 -6.518619 -1.042568 0
M  V30 26 N -1.120739 -6.022230 -0.521476 0
M  V30 27 C -0.324165 -2.121116 2.580284 0
M  V30 28 C 0.218792 -0.857772 2.311896 0
M  V30 29 C -0.059473 2.136051 2.713566 0
M  V30 30 N -1.055679 1.990255 3.720397 0
M  V30 31 N 0.536978 3.262718 2.980976 0
M  V30 32 H 2.230593 5.566073 1.441292 0
M  V30 33 H 3.214041 5.220864 2.759479 0
M  V30 34 H 2.169467 0.922556 0.759272 0
M  V30 35 H -0.930843 1.258547 -0.864406 0
M  V30 36 H -1.189623 1.615284 -3.224172 0
M  V30 37 H 2.808590 3.028996 -3.398265 0
M  V30 38 H 3.040846 2.663331 -1.052299 0
M  V30 39 H -2.316405 0.755435 0.990583 0
M  V30 40 H -3.428432 -1.399189 1.385730 0
M  V30 41 H -3.285005 -5.013558 0.565657 0
M  V30 42 H 2.140582 -5.331711 1.199029 0
M  V30 43 H 2.065825 -6.698563 -0.892941 0
M  V30 44 H -0.106176 -7.106074 -1.959262 0
M  V30 45 H 0.184349 -2.948746 3.020988 0
M  V30 46 H 1.274423 -0.856447 2.633324 0
M  V30 47 H -1.185880 1.410334 4.594624 0
M  V30 48 H -1.948219 2.524225 3.742575 0
M  V30 END ATOM
M  V30 BEGIN BOND
M  V30 1 1 1 2
M  V30 2 2 2 3
M  V30 3 1 3 4
M  V30 4 1 4 5
M  V30 5 2 5 6
M  V30 6 1 6 7
M  V30 7 2 7 8
M  V30 8 1 8 9
M  V30 9 1 8 10
M  V30 10 2 10 11
M  V30 11 1 4 12
M  V30 12 1 12 13
M  V30 13 2 13 14
M  V30 14 1 14 15
M  V30 15 2 15 16
M  V30 16 1 16 17
M  V30 17 2 17 18
M  V30 18 2 17 19
M  V30 19 1 17 20
M  V30 20 1 20 21
M  V30 21 2 21 22
M  V30 22 1 22 23
M  V30 23 2 23 24
M  V30 24 1 24 25
M  V30 25 2 25 26
M  V30 26 1 16 27
M  V30 27 2 27 28
M  V30 28 1 12 29
M  V30 29 1 29 30
M  V30 30 2 29 31
M  V30 31 1 31 2
M  V30 32 1 11 5
M  V30 33 1 28 13
M  V30 34 1 26 21
M  V30 35 1 1 32
M  V30 36 1 1 33
M  V30 37 1 4 34 CFG=3
M  V30 38 1 6 35
M  V30 39 1 7 36
M  V30 40 1 10 37
M  V30 41 1 11 38
M  V30 42 1 14 39
M  V30 43 1 15 40
M  V30 44 1 20 41
M  V30 45 1 23 42
M  V30 46 1 24 43
M  V30 47 1 25 44
M  V30 48 1 27 45
M  V30 49 1 28 46
M  V30 50 1 30 47
M  V30 51 1 30 48
M  V30 END BOND
M  V30 END CTAB
M  END
>  <Dataset>  (867) 
ChEMBL_Kinases

>  <Ligand_Instance>  (867) 
nan

>  <PDB_ID>  (867) 
nan

>  <Standardized_SMILES>  (867) 
NC1=N[C@H](c2ccc(Cl)cc2)N(c2ccc(S(=O)(=O)Nc3ncccn3)cc2)C(N)=N1

>  <Name>  (867) 
nan

>  <Pocket>  (867) 
nan

>  <ATP_Site>  (867) 
nan

>  <Peripheral>  (867) 
nan

>  <Num_H_Atoms_ProtBoundConf>  (867) 
nan

>  <Num_Resolved_Atoms>  (867) 
nan

>  <Num_Not_Resolved_Atoms>  (867) 
nan

$$$$
CHEMBL1494710
     RDKit          3D

  0  0  0  0  0  0  0  0  0  0999 V3000
M  V30 BEGIN CTAB
M  V30 COUNTS 62 65 0 0 0
M  V30 BEGIN ATOM
M  V30 1 C 3.955898 4.035238 -0.066532 0
M  V30 2 C 5.028565 3.012049 0.066467 0
M  V30 3 C 5.204397 2.682987 1.545162 0
M  V30 4 C 6.574736 2.090598 1.724766 0
M  V30 5 C 7.154120 1.739527 0.384239 0
M  V30 6 C 6.163859 1.091772 -0.528736 0
M  V30 7 N 4.944169 1.849091 -0.722453 0
M  V30 8 C 3.857211 0.969154 -0.603814 0
M  V30 9 C 2.469345 1.517877 -0.738594 0
M  V30 10 N 1.604420 0.320244 -0.596478 0
M  V30 11 C 0.221699 0.608977 -0.679853 0
M  V30 12 O -0.010702 1.841489 -0.853325 0
M  V30 13 C -0.891695 -0.357827 -0.585047 0
M  V30 14 C -2.154925 0.249403 -0.582095 0
M  V30 15 C -3.198439 -0.685587 -0.513898 0
M  V30 16 C -3.053968 -2.062593 -0.453660 0
M  V30 17 C -4.168355 -2.868890 -0.392753 0
M  V30 18 O -5.293899 -2.304459 -0.392183 0
M  V30 19 N -3.944722 -4.220175 -0.338831 0
M  V30 20 C -5.109722 -5.070216 -0.270717 0
M  V30 21 C -5.531220 -5.354555 1.152817 0
M  V30 22 C -5.872495 -4.107593 1.904915 0
M  V30 23 C -4.878366 -3.422310 2.616632 0
M  V30 24 C -5.172311 -2.260090 3.320586 0
M  V30 25 C -6.479224 -1.805340 3.294041 0
M  V30 26 C -7.514473 -2.436376 2.608987 0
M  V30 27 C -7.149058 -3.582503 1.933094 0
M  V30 28 C -2.675279 -4.652142 -0.349787 0
M  V30 29 O -2.597566 -5.909623 -0.296322 0
M  V30 30 N -1.605437 -3.838408 -0.410128 0
M  V30 31 C -1.747376 -2.482110 -0.466038 0
M  V30 32 C -0.614122 -1.705211 -0.529443 0
M  V30 33 H 4.469536 5.050795 -0.093370 0
M  V30 34 H 3.344817 4.100614 0.861779 0
M  V30 35 H 3.381275 4.022751 -1.002626 0
M  V30 36 H 6.021557 3.502415 -0.206712 0
M  V30 37 H 5.096836 3.608926 2.149801 0
M  V30 38 H 4.394102 1.995743 1.889939 0
M  V30 39 H 7.209859 2.858758 2.218186 0
M  V30 40 H 6.451198 1.199659 2.379245 0
M  V30 41 H 7.750412 2.548642 -0.087577 0
M  V30 42 H 7.931375 0.944219 0.599336 0
M  V30 43 H 6.614819 0.773236 -1.496193 0
M  V30 44 H 5.872598 0.125056 -0.019391 0
M  V30 45 H 3.952472 0.348492 0.339158 0
M  V30 46 H 3.931214 0.171260 -1.411631 0
M  V30 47 H 2.334788 1.994135 -1.727141 0
M  V30 48 H 2.176616 2.258017 0.025525 0
M  V30 49 H 1.850407 -0.699816 -0.445604 0
M  V30 50 H -2.307297 1.308862 -0.627882 0
M  V30 51 H -4.206358 -0.277397 -0.507509 0
M  V30 52 H -4.964475 -6.046628 -0.773712 0
M  V30 53 H -5.926802 -4.568305 -0.844235 0
M  V30 54 H -4.686292 -5.846687 1.674920 0
M  V30 55 H -6.362915 -6.087908 1.198608 0
M  V30 56 H -3.856298 -3.816199 2.612969 0
M  V30 57 H -4.388082 -1.749019 3.859945 0
M  V30 58 H -6.674849 -0.884549 3.865016 0
M  V30 59 H -8.507153 -2.031045 2.625146 0
M  V30 60 H -7.946209 -4.091356 1.391446 0
M  V30 61 H -0.657839 -4.313575 -0.411133 0
M  V30 62 H 0.384441 -2.103732 -0.533615 0
M  V30 END ATOM
M  V30 BEGIN BOND
M  V30 1 1 1 2
M  V30 2 1 2 3
M  V30 3 1 3 4
M  V30 4 1 4 5
M  V30 5 1 5 6
M  V30 6 1 6 7
M  V30 7 1 7 8
M  V30 8 1 8 9
M  V30 9 1 9 10
M  V30 10 1 10 11
M  V30 11 2 11 12
M  V30 12 1 11 13
M  V30 13 2 13 14
M  V30 14 1 14 15
M  V30 15 2 15 16
M  V30 16 1 16 17
M  V30 17 2 17 18
M  V30 18 1 17 19
M  V30 19 1 19 20
M  V30 20 1 20 21
M  V30 21 1 21 22
M  V30 22 2 22 23
M  V30 23 1 23 24
M  V30 24 2 24 25
M  V30 25 1 25 26
M  V30 26 2 26 27
M  V30 27 1 19 28
M  V30 28 2 28 29
M  V30 29 1 28 30
M  V30 30 1 30 31
M  V30 31 2 31 32
M  V30 32 1 7 2
M  V30 33 1 32 13
M  V30 34 1 31 16
M  V30 35 1 27 22
M  V30 36 1 1 33
M  V30 37 1 1 34
M  V30 38 1 1 35
M  V30 39 1 2 36
M  V30 40 1 3 37
M  V30 41 1 3 38
M  V30 42 1 4 39
M  V30 43 1 4 40
M  V30 44 1 5 41
M  V30 45 1 5 42
M  V30 46 1 6 43
M  V30 47 1 6 44
M  V30 48 1 8 45
M  V30 49 1 8 46
M  V30 50 1 9 47
M  V30 51 1 9 48
M  V30 52 1 10 49
M  V30 53 1 14 50
M  V30 54 1 15 51
M  V30 55 1 20 52
M  V30 56 1 20 53
M  V30 57 1 21 54
M  V30 58 1 21 55
M  V30 59 1 23 56
M  V30 60 1 24 57
M  V30 61 1 25 58
M  V30 62 1 26 59
M  V30 63 1 27 60
M  V30 64 1 30 61
M  V30 65 1 32 62
M  V30 END BOND
M  V30 END CTAB
M  END
>  <Dataset>  (868) 
ChEMBL_Kinases

>  <Ligand_Instance>  (868) 
nan

>  <PDB_ID>  (868) 
nan

>  <Standardized_SMILES>  (868) 
CC1CCCCN1CCNC(=O)c1ccc2c(=O)n(CCc3ccccc3)c(=O)[nH]c2c1

>  <Name>  (868) 
nan

>  <Pocket>  (868) 
nan

>  <ATP_Site>  (868) 
nan

>  <Peripheral>  (868) 
nan

>  <Num_H_Atoms_ProtBoundConf>  (868) 
nan

>  <Num_Resolved_Atoms>  (868) 
nan

>  <Num_Not_Resolved_Atoms>  (868) 
nan

$$$$
CHEMBL1494654
     RDKit          3D

  0  0  0  0  0  0  0  0  0  0999 V3000
M  V30 BEGIN CTAB
M  V30 COUNTS 61 63 0 0 0
M  V30 BEGIN ATOM
M  V30 1 C 2.331479 -4.960248 3.095070 0
M  V30 2 C 3.364569 -3.983847 3.663570 0
M  V30 3 O 3.322061 -2.768030 2.906028 0
M  V30 4 C 2.169535 -2.005429 2.822051 0
M  V30 5 O 1.130481 -2.394704 3.424389 0
M  V30 6 C 2.135499 -0.731751 2.032275 0
M  V30 7 C 3.120898 0.268934 2.590563 0
M  V30 8 C 3.055514 1.548151 1.815703 0
M  V30 9 N 1.860262 1.729569 1.063322 0
M  V30 10 C 1.703560 2.898876 0.242201 0
M  V30 11 O 2.778579 2.973959 0.861640 0
M  V30 12 C 1.543834 4.067606 -0.580441 0
M  V30 13 S 0.362818 4.175785 -1.867328 0
M  V30 14 C -1.353740 3.907112 -1.555165 0
M  V30 15 C -1.692511 2.462804 -1.548515 0
M  V30 16 N -1.955580 1.353110 -0.871036 0
M  V30 17 C -2.174392 0.276006 -1.594635 0
M  V30 18 C -2.486043 -1.119820 -1.352920 0
M  V30 19 C -2.564092 -1.491150 -0.029481 0
M  V30 20 C -2.833874 -2.794287 0.335034 0
M  V30 21 C -3.027305 -3.738931 -0.665241 0
M  V30 22 O -3.300801 -5.072665 -0.569435 0
M  V30 23 C -3.441434 -5.798930 0.647535 0
M  V30 24 C -2.156956 -5.725614 1.455285 0
M  V30 25 C -2.947922 -3.355779 -2.004443 0
M  V30 26 C -2.675900 -2.040562 -2.365658 0
M  V30 27 O -2.053235 0.686571 -2.861146 0
M  V30 28 C -1.771227 1.960599 -2.872971 0
M  V30 29 C -1.585614 2.659896 -4.201439 0
M  V30 30 C 0.669924 0.911426 1.007795 0
M  V30 31 C 0.776514 -0.081141 2.172201 0
M  V30 32 H 2.062991 -4.715939 2.035847 0
M  V30 33 H 2.757455 -5.971594 3.145312 0
M  V30 34 H 1.381166 -4.924675 3.693734 0
M  V30 35 H 3.156840 -3.816856 4.718567 0
M  V30 36 H 4.358109 -4.434658 3.470750 0
M  V30 37 H 2.407835 -0.888674 0.962727 0
M  V30 38 H 2.896825 0.479943 3.673114 0
M  V30 39 H 4.144151 -0.173232 2.527788 0
M  V30 40 H 3.206776 2.432965 2.513394 0
M  V30 41 H 3.928731 1.570375 1.119061 0
M  V30 42 H 1.531275 5.008628 0.099131 0
M  V30 43 H 2.576671 4.238711 -1.087934 0
M  V30 44 H -1.690344 4.310334 -0.551218 0
M  V30 45 H -1.981639 4.448969 -2.286177 0
M  V30 46 H -2.428886 -0.848042 0.839598 0
M  V30 47 H -2.921217 -3.178614 1.321002 0
M  V30 48 H -3.636110 -6.843052 0.350906 0
M  V30 49 H -4.281911 -5.396202 1.242744 0
M  V30 50 H -1.459232 -5.028881 0.919589 0
M  V30 51 H -2.334849 -5.380131 2.476176 0
M  V30 52 H -1.661035 -6.725540 1.407090 0
M  V30 53 H -3.079884 -3.998042 -2.877140 0
M  V30 54 H -2.611290 -1.711257 -3.397909 0
M  V30 55 H -2.057997 3.666655 -4.162806 0
M  V30 56 H -0.537588 2.655789 -4.496797 0
M  V30 57 H -2.172196 2.090760 -4.944525 0
M  V30 58 H -0.246080 1.538780 1.149370 0
M  V30 59 H 0.687978 0.320490 0.091948 0
M  V30 60 H 0.729186 0.575734 3.094601 0
M  V30 61 H -0.058445 -0.780878 2.192680 0
M  V30 END ATOM
M  V30 BEGIN BOND
M  V30 1 1 1 2
M  V30 2 1 2 3
M  V30 3 1 3 4
M  V30 4 2 4 5
M  V30 5 1 4 6
M  V30 6 1 6 7
M  V30 7 1 7 8
M  V30 8 1 8 9
M  V30 9 1 9 10
M  V30 10 2 10 11
M  V30 11 1 10 12
M  V30 12 1 12 13
M  V30 13 1 13 14
M  V30 14 1 14 15
M  V30 15 1 15 16
M  V30 16 2 16 17
M  V30 17 1 17 18
M  V30 18 2 18 19
M  V30 19 1 19 20
M  V30 20 2 20 21
M  V30 21 1 21 22
M  V30 22 1 22 23
M  V30 23 1 23 24
M  V30 24 1 21 25
M  V30 25 2 25 26
M  V30 26 1 17 27
M  V30 27 1 27 28
M  V30 28 1 28 29
M  V30 29 1 9 30
M  V30 30 1 30 31
M  V30 31 1 31 6
M  V30 32 2 28 15
M  V30 33 1 26 18
M  V30 34 1 1 32
M  V30 35 1 1 33
M  V30 36 1 1 34
M  V30 37 1 2 35
M  V30 38 1 2 36
M  V30 39 1 6 37
M  V30 40 1 7 38
M  V30 41 1 7 39
M  V30 42 1 8 40
M  V30 43 1 8 41
M  V30 44 1 12 42
M  V30 45 1 12 43
M  V30 46 1 14 44
M  V30 47 1 14 45
M  V30 48 1 19 46
M  V30 49 1 20 47
M  V30 50 1 23 48
M  V30 51 1 23 49
M  V30 52 1 24 50
M  V30 53 1 24 51
M  V30 54 1 24 52
M  V30 55 1 25 53
M  V30 56 1 26 54
M  V30 57 1 29 55
M  V30 58 1 29 56
M  V30 59 1 29 57
M  V30 60 1 30 58
M  V30 61 1 30 59
M  V30 62 1 31 60
M  V30 63 1 31 61
M  V30 END BOND
M  V30 END CTAB
M  END
>  <Dataset>  (869) 
ChEMBL_Kinases

>  <Ligand_Instance>  (869) 
nan

>  <PDB_ID>  (869) 
nan

>  <Standardized_SMILES>  (869) 
CCOC(=O)C1CCN(C(=O)CSCc2nc(-c3ccc(OCC)cc3)oc2C)CC1

>  <Name>  (869) 
nan

>  <Pocket>  (869) 
nan

>  <ATP_Site>  (869) 
nan

>  <Peripheral>  (869) 
nan

>  <Num_H_Atoms_ProtBoundConf>  (869) 
nan

>  <Num_Resolved_Atoms>  (869) 
nan

>  <Num_Not_Resolved_Atoms>  (869) 
nan

$$$$
CHEMBL1494609
     RDKit          3D

  0  0  0  0  0  0  0  0  0  0999 V3000
M  V30 BEGIN CTAB
M  V30 COUNTS 40 42 0 0 0
M  V30 BEGIN ATOM
M  V30 1 C 0.190682 -2.679060 1.950488 0
M  V30 2 O 1.425894 -3.165074 1.617569 0
M  V30 3 C 2.145481 -2.363865 0.749116 0
M  V30 4 C 1.392957 -2.206782 -0.527717 0
M  V30 5 N 2.104303 -1.374760 -1.493710 0
M  V30 6 C 2.980730 -1.842424 -2.408235 0
M  V30 7 O 3.196965 -3.082413 -2.426148 0
M  V30 8 C 3.600612 -0.947020 -3.281545 0
M  V30 9 N 3.361387 0.378124 -3.253102 0
M  V30 10 C 2.485446 0.852751 -2.340416 0
M  V30 11 C 2.230866 2.209413 -2.300224 0
M  V30 12 N 1.357104 2.647589 -1.383250 0
M  V30 13 C 0.742431 1.785227 -0.521986 0
M  V30 14 O -0.141468 2.366456 0.380151 0
M  V30 15 C -0.858602 1.636681 1.334005 0
M  V30 16 C -0.165893 1.519229 2.531728 0
M  V30 17 C -0.785749 0.808903 3.561161 0
M  V30 18 C -2.034766 0.248138 3.392242 0
M  V30 19 O -2.597568 -0.446928 4.456078 0
M  V30 20 C -3.865878 -1.023902 4.304003 0
M  V30 21 C -2.716246 0.378239 2.176433 0
M  V30 22 C -2.108431 1.082404 1.147318 0
M  V30 23 N 1.006813 0.458940 -0.578986 0
M  V30 24 C 1.878729 -0.047002 -1.481337 0
M  V30 25 H 0.331092 -1.677087 2.437145 0
M  V30 26 H -0.569345 -2.685516 1.163071 0
M  V30 27 H -0.176461 -3.326943 2.803216 0
M  V30 28 H 3.171203 -2.730958 0.608112 0
M  V30 29 H 2.262725 -1.377787 1.279992 0
M  V30 30 H 1.292160 -3.204583 -1.001146 0
M  V30 31 H 0.400244 -1.755266 -0.337035 0
M  V30 32 H 4.295390 -1.405337 -3.990343 0
M  V30 33 H 2.733887 2.862156 -2.995274 0
M  V30 34 H 0.811286 1.933837 2.726016 0
M  V30 35 H -0.270820 0.697782 4.512877 0
M  V30 36 H -3.938181 -1.600868 3.340096 0
M  V30 37 H -4.620864 -0.219074 4.208587 0
M  V30 38 H -4.106837 -1.730446 5.122775 0
M  V30 39 H -3.688981 -0.054093 2.033542 0
M  V30 40 H -2.548817 1.232875 0.190560 0
M  V30 END ATOM
M  V30 BEGIN BOND
M  V30 1 1 1 2
M  V30 2 1 2 3
M  V30 3 1 3 4
M  V30 4 1 4 5
M  V30 5 1 5 6
M  V30 6 2 6 7
M  V30 7 1 6 8
M  V30 8 2 8 9
M  V30 9 1 9 10
M  V30 10 2 10 11
M  V30 11 1 11 12
M  V30 12 2 12 13
M  V30 13 1 13 14
M  V30 14 1 14 15
M  V30 15 2 15 16
M  V30 16 1 16 17
M  V30 17 2 17 18
M  V30 18 1 18 19
M  V30 19 1 19 20
M  V30 20 1 18 21
M  V30 21 2 21 22
M  V30 22 1 13 23
M  V30 23 2 23 24
M  V30 24 1 24 5
M  V30 25 1 24 10
M  V30 26 1 22 15
M  V30 27 1 1 25
M  V30 28 1 1 26
M  V30 29 1 1 27
M  V30 30 1 3 28
M  V30 31 1 3 29
M  V30 32 1 4 30
M  V30 33 1 4 31
M  V30 34 1 8 32
M  V30 35 1 11 33
M  V30 36 1 16 34
M  V30 37 1 17 35
M  V30 38 1 20 36
M  V30 39 1 20 37
M  V30 40 1 20 38
M  V30 41 1 21 39
M  V30 42 1 22 40
M  V30 END BOND
M  V30 END CTAB
M  END
>  <Dataset>  (870) 
ChEMBL_Kinases

>  <Ligand_Instance>  (870) 
nan

>  <PDB_ID>  (870) 
nan

>  <Standardized_SMILES>  (870) 
COCCn1c(=O)cnc2cnc(Oc3ccc(OC)cc3)nc21

>  <Name>  (870) 
nan

>  <Pocket>  (870) 
nan

>  <ATP_Site>  (870) 
nan

>  <Peripheral>  (870) 
nan

>  <Num_H_Atoms_ProtBoundConf>  (870) 
nan

>  <Num_Resolved_Atoms>  (870) 
nan

>  <Num_Not_Resolved_Atoms>  (870) 
nan

$$$$
CHEMBL1494606
     RDKit          3D

  0  0  0  0  0  0  0  0  0  0999 V3000
M  V30 BEGIN CTAB
M  V30 COUNTS 39 41 0 0 0
M  V30 BEGIN ATOM
M  V30 1 S 2.868276 0.447469 1.922034 0
M  V30 2 C 1.710488 -0.732787 1.266441 0
M  V30 3 N 2.117245 -1.903241 0.897800 0
M  V30 4 C 1.164630 -2.844458 0.369653 0
M  V30 5 N 0.012218 -2.253188 -0.215345 0
M  V30 6 C 0.163842 -1.974023 -1.627161 0
M  V30 7 C 1.267327 -1.044644 -1.889592 0
M  V30 8 C 2.595228 -1.321856 -2.141247 0
M  V30 9 C 3.515791 -0.320194 -2.369912 0
M  V30 10 C 3.146017 1.018021 -2.357146 0
M  V30 11 N 1.842609 1.304453 -2.110831 0
M  V30 12 C 0.936564 0.314885 -1.885584 0
M  V30 13 C -0.587204 -1.191230 0.516665 0
M  V30 14 N 0.342979 -0.313489 1.177426 0
M  V30 15 C -0.145918 0.943162 1.716967 0
M  V30 16 C -1.198437 0.589308 2.735059 0
M  V30 17 C -0.918048 0.369939 4.084341 0
M  V30 18 C -1.947980 0.048630 4.951777 0
M  V30 19 C -3.245829 -0.055887 4.492831 0
M  V30 20 C -3.535047 0.158782 3.161045 0
M  V30 21 C -2.511133 0.482405 2.277030 0
M  V30 22 H 3.116035 0.113367 3.264505 0
M  V30 23 H 0.846497 -3.501558 1.204728 0
M  V30 24 H 1.691339 -3.486258 -0.362204 0
M  V30 25 H -0.766447 -1.590383 -2.082409 0
M  V30 26 H 0.374391 -2.971535 -2.105249 0
M  V30 27 H 2.839010 -2.373999 -2.142900 0
M  V30 28 H 4.521247 -0.685387 -2.553351 0
M  V30 29 H 3.909897 1.760924 -2.542894 0
M  V30 30 H -0.030338 0.766136 -1.714040 0
M  V30 31 H -1.238298 -0.602214 -0.160002 0
M  V30 32 H -1.257701 -1.624755 1.285684 0
M  V30 33 H 0.662867 1.533193 2.186649 0
M  V30 34 H -0.628496 1.545183 0.924076 0
M  V30 35 H 0.114672 0.461628 4.405403 0
M  V30 36 H -1.746003 -0.124497 6.001622 0
M  V30 37 H -4.081788 -0.306599 5.144729 0
M  V30 38 H -4.542004 0.081570 2.784767 0
M  V30 39 H -2.791531 0.642323 1.234748 0
M  V30 END ATOM
M  V30 BEGIN BOND
M  V30 1 1 1 2
M  V30 2 2 2 3
M  V30 3 1 3 4
M  V30 4 1 4 5
M  V30 5 1 5 6
M  V30 6 1 6 7
M  V30 7 2 7 8
M  V30 8 1 8 9
M  V30 9 2 9 10
M  V30 10 1 10 11
M  V30 11 2 11 12
M  V30 12 1 5 13
M  V30 13 1 13 14
M  V30 14 1 14 15
M  V30 15 1 15 16
M  V30 16 2 16 17
M  V30 17 1 17 18
M  V30 18 2 18 19
M  V30 19 1 19 20
M  V30 20 2 20 21
M  V30 21 1 14 2
M  V30 22 1 21 16
M  V30 23 1 12 7
M  V30 24 1 1 22
M  V30 25 1 4 23
M  V30 26 1 4 24
M  V30 27 1 6 25
M  V30 28 1 6 26
M  V30 29 1 8 27
M  V30 30 1 9 28
M  V30 31 1 10 29
M  V30 32 1 12 30
M  V30 33 1 13 31
M  V30 34 1 13 32
M  V30 35 1 15 33
M  V30 36 1 15 34
M  V30 37 1 17 35
M  V30 38 1 18 36
M  V30 39 1 19 37
M  V30 40 1 20 38
M  V30 41 1 21 39
M  V30 END BOND
M  V30 END CTAB
M  END
>  <Dataset>  (871) 
ChEMBL_Kinases

>  <Ligand_Instance>  (871) 
nan

>  <PDB_ID>  (871) 
nan

>  <Standardized_SMILES>  (871) 
SC1=NCN(Cc2cccnc2)CN1Cc1ccccc1

>  <Name>  (871) 
nan

>  <Pocket>  (871) 
nan

>  <ATP_Site>  (871) 
nan

>  <Peripheral>  (871) 
nan

>  <Num_H_Atoms_ProtBoundConf>  (871) 
nan

>  <Num_Resolved_Atoms>  (871) 
nan

>  <Num_Not_Resolved_Atoms>  (871) 
nan

$$$$
CHEMBL1494569
     RDKit          3D

  0  0  0  0  0  0  0  0  0  0999 V3000
M  V30 BEGIN CTAB
M  V30 COUNTS 47 50 0 0 0
M  V30 BEGIN ATOM
M  V30 1 O 1.836740 0.798692 2.614242 0
M  V30 2 C 1.581777 -0.103136 1.776491 0
M  V30 3 N 2.716191 -0.844852 1.320020 0
M  V30 4 C 4.061817 -0.609536 1.752881 0
M  V30 5 C 4.631415 0.726525 1.498926 0
M  V30 6 C 6.051235 0.758803 2.031622 0
M  V30 7 N 6.874997 -0.230468 1.390085 0
M  V30 8 C 7.564452 0.028899 0.270840 0
M  V30 9 C 8.250100 -1.100544 -0.097174 0
M  V30 10 N 7.981309 -2.068398 0.805121 0
M  V30 11 C 7.129411 -1.527187 1.725235 0
M  V30 12 C 0.238095 -0.400232 1.282343 0
M  V30 13 N -0.183507 -1.306232 0.344722 0
M  V30 14 N -1.498033 -1.211876 0.235740 0
M  V30 15 C -2.458555 -1.806937 -0.492028 0
M  V30 16 C -1.978195 -2.863024 -1.445293 0
M  V30 17 F -1.897924 -2.246804 -2.699304 0
M  V30 18 F -0.725996 -3.348563 -1.084042 0
M  V30 19 F -2.905680 -3.850078 -1.541519 0
M  V30 20 C -3.807431 -1.537583 -0.444511 0
M  V30 21 C -4.221929 -0.561200 0.435019 0
M  V30 22 C -5.622083 -0.195610 0.578170 0
M  V30 23 C -6.665725 -0.748367 -0.131688 0
M  V30 24 C -7.987166 -0.377883 0.039183 0
M  V30 25 C -8.327508 0.583995 0.949599 0
M  V30 26 C -7.332181 1.174006 1.690108 0
M  V30 27 C -6.007160 0.787725 1.503251 0
M  V30 28 N -3.261235 0.030726 1.160396 0
M  V30 29 C -1.953235 -0.269393 1.076355 0
M  V30 30 C -0.883801 0.283755 1.772248 0
M  V30 31 Cl -0.976314 1.552006 2.975762 0
M  V30 32 H 2.478629 -1.607453 0.615636 0
M  V30 33 H 4.176377 -0.830825 2.842155 0
M  V30 34 H 4.711918 -1.355918 1.245699 0
M  V30 35 H 4.691621 1.022649 0.442294 0
M  V30 36 H 4.081727 1.502747 2.108959 0
M  V30 37 H 6.061576 0.567910 3.139797 0
M  V30 38 H 6.487182 1.771450 1.878429 0
M  V30 39 H 7.644106 0.931211 -0.324310 0
M  V30 40 H 8.904801 -1.239573 -0.955874 0
M  V30 41 H 6.668586 -1.935027 2.600116 0
M  V30 42 H -4.509618 -2.069294 -1.071139 0
M  V30 43 H -6.450345 -1.510776 -0.864897 0
M  V30 44 H -8.787730 -0.825719 -0.531266 0
M  V30 45 H -9.293123 0.959969 1.179010 0
M  V30 46 H -7.353496 1.948099 2.470076 0
M  V30 47 H -5.146004 1.209049 2.054110 0
M  V30 END ATOM
M  V30 BEGIN BOND
M  V30 1 2 1 2
M  V30 2 1 2 3
M  V30 3 1 3 4
M  V30 4 1 4 5
M  V30 5 1 5 6
M  V30 6 1 6 7
M  V30 7 1 7 8
M  V30 8 2 8 9
M  V30 9 1 9 10
M  V30 10 2 10 11
M  V30 11 1 2 12
M  V30 12 2 12 13
M  V30 13 1 13 14
M  V30 14 1 14 15
M  V30 15 1 15 16
M  V30 16 1 16 17
M  V30 17 1 16 18
M  V30 18 1 16 19
M  V30 19 2 15 20
M  V30 20 1 20 21
M  V30 21 1 21 22
M  V30 22 2 22 23
M  V30 23 1 23 24
M  V30 24 2 24 25
M  V30 25 1 25 26
M  V30 26 2 26 27
M  V30 27 2 21 28
M  V30 28 1 28 29
M  V30 29 2 29 30
M  V30 30 1 30 31
M  V30 31 1 11 7
M  V30 32 1 30 12
M  V30 33 1 29 14
M  V30 34 1 27 22
M  V30 35 1 3 32
M  V30 36 1 4 33
M  V30 37 1 4 34
M  V30 38 1 5 35
M  V30 39 1 5 36
M  V30 40 1 6 37
M  V30 41 1 6 38
M  V30 42 1 8 39
M  V30 43 1 9 40
M  V30 44 1 11 41
M  V30 45 1 20 42
M  V30 46 1 23 43
M  V30 47 1 24 44
M  V30 48 1 25 45
M  V30 49 1 26 46
M  V30 50 1 27 47
M  V30 END BOND
M  V30 END CTAB
M  END
>  <Dataset>  (872) 
ChEMBL_Kinases

>  <Ligand_Instance>  (872) 
nan

>  <PDB_ID>  (872) 
nan

>  <Standardized_SMILES>  (872) 
O=C(NCCCn1ccnc1)c1nn2c(C(F)(F)F)cc(-c3ccccc3)nc2c1Cl

>  <Name>  (872) 
nan

>  <Pocket>  (872) 
nan

>  <ATP_Site>  (872) 
nan

>  <Peripheral>  (872) 
nan

>  <Num_H_Atoms_ProtBoundConf>  (872) 
nan

>  <Num_Resolved_Atoms>  (872) 
nan

>  <Num_Not_Resolved_Atoms>  (872) 
nan

$$$$
CHEMBL1494345
     RDKit          3D

  0  0  0  0  0  0  0  0  0  0999 V3000
M  V30 BEGIN CTAB
M  V30 COUNTS 31 32 0 0 0
M  V30 BEGIN ATOM
M  V30 1 N 3.807940 -2.285141 1.128738 0
M  V30 2 C 2.640551 -1.413269 1.122011 0
M  V30 3 O 2.473801 -2.440251 0.488615 0
M  V30 4 C 2.762100 -0.175920 1.852032 0
M  V30 5 C 3.834854 0.253236 2.560589 0
M  V30 6 C 3.646641 1.478990 3.161377 0
M  V30 7 S 2.026915 1.996594 2.741025 0
M  V30 8 C 1.608901 0.520880 1.735423 0
M  V30 9 N 0.332108 0.447593 1.139063 0
M  V30 10 C 0.228274 1.032011 -0.150049 0
M  V30 11 O 1.256174 1.566646 -0.662483 0
M  V30 12 C -0.902131 1.148233 -1.063266 0
M  V30 13 O -2.110038 0.607287 -0.655826 0
M  V30 14 C -2.397340 -0.708706 -0.357746 0
M  V30 15 C -1.600361 -1.833882 -0.379568 0
M  V30 16 C -2.085549 -3.077582 -0.041944 0
M  V30 17 C -3.422761 -3.228095 0.337471 0
M  V30 18 C -4.259674 -2.116799 0.372256 0
M  V30 19 C -3.709899 -0.901805 0.022253 0
M  V30 20 H 4.806688 -1.917411 1.234242 0
M  V30 21 H 4.837613 -2.016302 1.227823 0
M  V30 22 H 4.748591 -0.312061 2.645720 0
M  V30 23 H 4.382513 1.958505 3.750486 0
M  V30 24 H -0.536550 0.029342 1.516443 0
M  V30 25 H -1.084963 2.232469 -1.292211 0
M  V30 26 H -0.677499 0.714639 -2.082864 0
M  V30 27 H -0.570927 -1.606219 -0.689823 0
M  V30 28 H -1.370987 -3.885977 -0.094275 0
M  V30 29 H -3.767707 -4.226587 0.596668 0
M  V30 30 H -5.288604 -2.265876 0.669351 0
M  V30 31 H -4.454039 -0.098853 0.083932 0
M  V30 END ATOM
M  V30 BEGIN BOND
M  V30 1 1 1 2
M  V30 2 2 2 3
M  V30 3 1 2 4
M  V30 4 1 4 5
M  V30 5 2 5 6
M  V30 6 1 6 7
M  V30 7 1 7 8
M  V30 8 1 8 9
M  V30 9 1 9 10
M  V30 10 2 10 11
M  V30 11 1 10 12
M  V30 12 1 12 13
M  V30 13 1 13 14
M  V30 14 2 14 15
M  V30 15 1 15 16
M  V30 16 2 16 17
M  V30 17 1 17 18
M  V30 18 2 18 19
M  V30 19 2 8 4
M  V30 20 1 19 14
M  V30 21 1 1 20
M  V30 22 1 1 21
M  V30 23 1 5 22
M  V30 24 1 6 23
M  V30 25 1 9 24
M  V30 26 1 12 25
M  V30 27 1 12 26
M  V30 28 1 15 27
M  V30 29 1 16 28
M  V30 30 1 17 29
M  V30 31 1 18 30
M  V30 32 1 19 31
M  V30 END BOND
M  V30 END CTAB
M  END
>  <Dataset>  (873) 
ChEMBL_Kinases

>  <Ligand_Instance>  (873) 
nan

>  <PDB_ID>  (873) 
nan

>  <Standardized_SMILES>  (873) 
NC(=O)c1ccsc1NC(=O)COc1ccccc1

>  <Name>  (873) 
nan

>  <Pocket>  (873) 
nan

>  <ATP_Site>  (873) 
nan

>  <Peripheral>  (873) 
nan

>  <Num_H_Atoms_ProtBoundConf>  (873) 
nan

>  <Num_Resolved_Atoms>  (873) 
nan

>  <Num_Not_Resolved_Atoms>  (873) 
nan

$$$$
CHEMBL1494278
     RDKit          3D

  0  0  0  0  0  0  0  0  0  0999 V3000
M  V30 BEGIN CTAB
M  V30 COUNTS 30 32 0 0 0
M  V30 BEGIN ATOM
M  V30 1 C 0.058880 -4.506070 -2.561383 0
M  V30 2 O 1.213779 -4.035748 -1.855995 0
M  V30 3 C 1.103440 -2.968626 -0.974960 0
M  V30 4 C 2.263232 -2.580029 -0.337998 0
M  V30 5 C 2.287823 -1.534437 0.560218 0
M  V30 6 C 1.153128 -0.816183 0.873856 0
M  V30 7 C 0.766548 0.258085 1.688216 0
M  V30 8 C -0.584243 0.415158 1.466275 0
M  V30 9 N -1.062323 -0.473838 0.582158 0
M  V30 10 C -0.010572 -1.229780 0.214546 0
M  V30 11 C -0.052052 -2.273942 -0.686902 0
M  V30 12 C -1.090110 1.517409 2.272295 0
M  V30 13 C -2.558291 1.849250 2.168569 0
M  V30 14 N -0.332704 2.184136 3.039768 0
M  V30 15 C 1.057706 2.061151 3.300891 0
M  V30 16 C 1.725242 0.956518 2.537356 0
M  V30 17 H 0.202103 -5.510193 -2.957791 0
M  V30 18 H -0.815470 -4.528232 -1.880233 0
M  V30 19 H -0.225346 -3.815956 -3.387763 0
M  V30 20 H 3.207438 -3.079576 -0.515290 0
M  V30 21 H 3.189471 -1.232447 1.055312 0
M  V30 22 H -2.049158 -0.489121 0.309139 0
M  V30 23 H -0.948889 -2.585655 -1.189029 0
M  V30 24 H -3.105983 0.929177 1.870351 0
M  V30 25 H -2.974589 2.191597 3.126631 0
M  V30 26 H -2.740700 2.614863 1.387519 0
M  V30 27 H 1.283931 1.966205 4.397571 0
M  V30 28 H 1.520662 3.039345 2.959815 0
M  V30 29 H 2.202861 0.227917 3.233651 0
M  V30 30 H 2.517061 1.431877 1.886110 0
M  V30 END ATOM
M  V30 BEGIN BOND
M  V30 1 1 1 2
M  V30 2 1 2 3
M  V30 3 2 3 4
M  V30 4 1 4 5
M  V30 5 2 5 6
M  V30 6 1 6 7
M  V30 7 2 7 8
M  V30 8 1 8 9
M  V30 9 1 9 10
M  V30 10 2 10 11
M  V30 11 1 8 12
M  V30 12 1 12 13
M  V30 13 2 12 14
M  V30 14 1 14 15
M  V30 15 1 15 16
M  V30 16 1 11 3
M  V30 17 1 10 6
M  V30 18 1 16 7
M  V30 19 1 1 17
M  V30 20 1 1 18
M  V30 21 1 1 19
M  V30 22 1 4 20
M  V30 23 1 5 21
M  V30 24 1 9 22
M  V30 25 1 11 23
M  V30 26 1 13 24
M  V30 27 1 13 25
M  V30 28 1 13 26
M  V30 29 1 15 27
M  V30 30 1 15 28
M  V30 31 1 16 29
M  V30 32 1 16 30
M  V30 END BOND
M  V30 END CTAB
M  END
>  <Dataset>  (874) 
ChEMBL_Kinases

>  <Ligand_Instance>  (874) 
nan

>  <PDB_ID>  (874) 
nan

>  <Standardized_SMILES>  (874) 
COc1ccc2c3c([nH]c2c1)C(C)=NCC3

>  <Name>  (874) 
nan

>  <Pocket>  (874) 
nan

>  <ATP_Site>  (874) 
nan

>  <Peripheral>  (874) 
nan

>  <Num_H_Atoms_ProtBoundConf>  (874) 
nan

>  <Num_Resolved_Atoms>  (874) 
nan

>  <Num_Not_Resolved_Atoms>  (874) 
nan

$$$$
CHEMBL1494268
     RDKit          3D

  0  0  0  0  0  0  0  0  0  0999 V3000
M  V30 BEGIN CTAB
M  V30 COUNTS 37 39 0 0 0
M  V30 BEGIN ATOM
M  V30 1 N 0.992668 -3.284136 1.421419 0
M  V30 2 N -0.056991 -2.376241 1.613664 0
M  V30 3 C -0.315355 -1.823463 2.826460 0
M  V30 4 S 0.647773 -2.151168 4.330408 0
M  V30 5 C 1.963251 -0.849876 4.264623 0
M  V30 6 C 1.866397 -0.189847 2.906726 0
M  V30 7 O 2.567703 -0.557676 1.939530 0
M  V30 8 N 0.958816 0.875017 2.697737 0
M  V30 9 C 0.668825 1.629305 1.546522 0
M  V30 10 C 1.198205 1.435533 0.292529 0
M  V30 11 C 0.913164 2.182387 -0.827214 0
M  V30 12 C 0.006611 3.232972 -0.686028 0
M  V30 13 F -0.345436 4.029647 -1.714094 0
M  V30 14 C -0.538080 3.453491 0.543874 0
M  V30 15 C -0.216285 2.674597 1.627616 0
M  V30 16 N -1.373074 -1.019733 2.629811 0
M  V30 17 N -1.747279 -1.071792 1.365063 0
M  V30 18 C -0.945031 -1.916227 0.681169 0
M  V30 19 C -0.798672 -2.410188 -0.692465 0
M  V30 20 C -0.488693 -1.504522 -1.685236 0
M  V30 21 C -0.342190 -2.002455 -2.979508 0
M  V30 22 C -0.524518 -3.361154 -3.133280 0
M  V30 23 C -0.834639 -4.276041 -2.149152 0
M  V30 24 N -0.970182 -3.750616 -0.893043 0
M  V30 25 H 0.769312 -4.208816 1.896442 0
M  V30 26 H 1.916252 -3.391057 0.980783 0
M  V30 27 H 2.955970 -1.310974 4.379088 0
M  V30 28 H 1.726563 -0.076255 5.005084 0
M  V30 29 H 0.414392 1.118884 3.577318 0
M  V30 30 H 1.900931 0.638421 0.125972 0
M  V30 31 H 1.363187 1.979564 -1.793547 0
M  V30 32 H -1.234797 4.258898 0.661261 0
M  V30 33 H -0.691488 2.915530 2.565276 0
M  V30 34 H -0.358588 -0.449427 -1.500256 0
M  V30 35 H -0.098609 -1.361344 -3.815091 0
M  V30 36 H -0.399355 -3.711442 -4.170965 0
M  V30 37 H -0.953113 -5.326217 -2.395523 0
M  V30 END ATOM
M  V30 BEGIN BOND
M  V30 1 1 1 2
M  V30 2 1 2 3
M  V30 3 1 3 4
M  V30 4 1 4 5
M  V30 5 1 5 6
M  V30 6 2 6 7
M  V30 7 1 6 8
M  V30 8 1 8 9
M  V30 9 2 9 10
M  V30 10 1 10 11
M  V30 11 2 11 12
M  V30 12 1 12 13
M  V30 13 1 12 14
M  V30 14 2 14 15
M  V30 15 2 3 16
M  V30 16 1 16 17
M  V30 17 2 17 18
M  V30 18 1 18 19
M  V30 19 2 19 20
M  V30 20 1 20 21
M  V30 21 2 21 22
M  V30 22 1 22 23
M  V30 23 2 23 24
M  V30 24 1 18 2
M  V30 25 1 24 19
M  V30 26 1 15 9
M  V30 27 1 1 25
M  V30 28 1 1 26
M  V30 29 1 5 27
M  V30 30 1 5 28
M  V30 31 1 8 29
M  V30 32 1 10 30
M  V30 33 1 11 31
M  V30 34 1 14 32
M  V30 35 1 15 33
M  V30 36 1 20 34
M  V30 37 1 21 35
M  V30 38 1 22 36
M  V30 39 1 23 37
M  V30 END BOND
M  V30 END CTAB
M  END
>  <Dataset>  (875) 
ChEMBL_Kinases

>  <Ligand_Instance>  (875) 
nan

>  <PDB_ID>  (875) 
nan

>  <Standardized_SMILES>  (875) 
Nn1c(SCC(=O)Nc2ccc(F)cc2)nnc1-c1ccccn1

>  <Name>  (875) 
nan

>  <Pocket>  (875) 
nan

>  <ATP_Site>  (875) 
nan

>  <Peripheral>  (875) 
nan

>  <Num_H_Atoms_ProtBoundConf>  (875) 
nan

>  <Num_Resolved_Atoms>  (875) 
nan

>  <Num_Not_Resolved_Atoms>  (875) 
nan

$$$$
CHEMBL1494196
     RDKit          3D

  0  0  0  0  0  0  0  0  0  0999 V3000
M  V30 BEGIN CTAB
M  V30 COUNTS 47 50 0 0 0
M  V30 BEGIN ATOM
M  V30 1 C -1.189393 -6.909762 -1.136949 0
M  V30 2 O -1.125882 -5.549612 -1.591211 0
M  V30 3 C -0.398746 -4.606091 -0.885663 0
M  V30 4 C 0.278359 -4.945343 0.262839 0
M  V30 5 C 0.994419 -3.943980 0.928775 0
M  V30 6 C 1.010339 -2.640403 0.426788 0
M  V30 7 C 0.311316 -2.338613 -0.739325 0
M  V30 8 C 0.359570 -0.960955 -1.219591 0
M  V30 9 C 0.286313 -0.712274 -2.574605 0
M  V30 10 C 0.329172 0.584514 -3.043230 0
M  V30 11 C 0.445705 1.589467 -2.109455 0
M  V30 12 N 0.500680 2.863647 -2.520002 0
M  V30 13 C 0.620912 3.903559 -1.692339 0
M  V30 14 N 0.694333 3.727354 -0.376635 0
M  V30 15 C 0.648582 2.482182 0.156280 0
M  V30 16 N 0.727541 2.227889 1.560917 0
M  V30 17 C 0.725561 1.413787 2.734280 0
M  V30 18 C 1.128821 2.154077 4.000304 0
M  V30 19 C 0.394701 1.661243 5.193416 0
M  V30 20 N -1.029380 1.647880 5.106620 0
M  V30 21 C -1.431729 1.940347 3.761994 0
M  V30 22 C -0.719118 0.919325 2.884722 0
M  V30 23 C 0.524967 1.442896 -0.742010 0
M  V30 24 C 0.474917 0.117665 -0.370062 0
M  V30 25 C -0.400338 -3.313105 -1.409580 0
M  V30 26 H -1.869272 -7.505927 -1.745366 0
M  V30 27 H -0.168875 -7.336680 -1.240360 0
M  V30 28 H -1.416552 -6.964779 -0.040837 0
M  V30 29 H 0.245733 -5.966545 0.626089 0
M  V30 30 H 1.539166 -4.184651 1.839209 0
M  V30 31 H 1.586428 -1.911238 0.993327 0
M  V30 32 H 0.195189 -1.532351 -3.272885 0
M  V30 33 H 0.274496 0.815045 -4.099030 0
M  V30 34 H 0.672014 4.953404 -1.946283 0
M  V30 35 H 0.860583 3.178891 2.011727 0
M  V30 36 H 1.362583 0.516117 2.710957 0
M  V30 37 H 2.211867 1.977892 4.147524 0
M  V30 38 H 1.027580 3.238015 3.823358 0
M  V30 39 H 0.649739 2.328397 6.063748 0
M  V30 40 H 0.723856 0.643248 5.521771 0
M  V30 41 H -1.459801 0.710296 5.353832 0
M  V30 42 H -1.079449 2.973400 3.517533 0
M  V30 43 H -2.517103 1.840994 3.582342 0
M  V30 44 H -0.760804 -0.063056 3.400596 0
M  V30 45 H -1.239239 0.825948 1.924463 0
M  V30 46 H 0.537804 -0.157710 0.665055 0
M  V30 47 H -0.947479 -3.078672 -2.321453 0
M  V30 END ATOM
M  V30 BEGIN BOND
M  V30 1 1 1 2
M  V30 2 1 2 3
M  V30 3 2 3 4
M  V30 4 1 4 5
M  V30 5 2 5 6
M  V30 6 1 6 7
M  V30 7 1 7 8
M  V30 8 2 8 9
M  V30 9 1 9 10
M  V30 10 2 10 11
M  V30 11 1 11 12
M  V30 12 2 12 13
M  V30 13 1 13 14
M  V30 14 2 14 15
M  V30 15 1 15 16
M  V30 16 1 16 17
M  V30 17 1 17 18
M  V30 18 1 18 19
M  V30 19 1 19 20
M  V30 20 1 20 21
M  V30 21 1 21 22
M  V30 22 1 15 23
M  V30 23 2 23 24
M  V30 24 2 7 25
M  V30 25 1 25 3
M  V30 26 1 24 8
M  V30 27 1 23 11
M  V30 28 1 22 17
M  V30 29 1 1 26
M  V30 30 1 1 27
M  V30 31 1 1 28
M  V30 32 1 4 29
M  V30 33 1 5 30
M  V30 34 1 6 31
M  V30 35 1 9 32
M  V30 36 1 10 33
M  V30 37 1 13 34
M  V30 38 1 16 35
M  V30 39 1 17 36
M  V30 40 1 18 37
M  V30 41 1 18 38
M  V30 42 1 19 39
M  V30 43 1 19 40
M  V30 44 1 20 41
M  V30 45 1 21 42
M  V30 46 1 21 43
M  V30 47 1 22 44
M  V30 48 1 22 45
M  V30 49 1 24 46
M  V30 50 1 25 47
M  V30 END BOND
M  V30 END CTAB
M  END
>  <Dataset>  (876) 
ChEMBL_Kinases

>  <Ligand_Instance>  (876) 
nan

>  <PDB_ID>  (876) 
nan

>  <Standardized_SMILES>  (876) 
COc1cccc(-c2ccc3ncnc(NC4CCNCC4)c3c2)c1

>  <Name>  (876) 
nan

>  <Pocket>  (876) 
nan

>  <ATP_Site>  (876) 
nan

>  <Peripheral>  (876) 
nan

>  <Num_H_Atoms_ProtBoundConf>  (876) 
nan

>  <Num_Resolved_Atoms>  (876) 
nan

>  <Num_Not_Resolved_Atoms>  (876) 
nan

$$$$
CHEMBL1494159
     RDKit          3D

  0  0  0  0  0  0  0  0  0  0999 V3000
M  V30 BEGIN CTAB
M  V30 COUNTS 41 45 0 0 0
M  V30 BEGIN ATOM
M  V30 1 C 1.841350 -3.365711 -0.167071 0
M  V30 2 N 1.976456 -2.310333 0.649421 0
M  V30 3 C 0.962789 -1.679289 1.257061 0
M  V30 4 N 1.154053 -0.569562 2.113300 0
M  V30 5 C 2.415336 0.031923 2.448263 0
M  V30 6 C 3.149153 0.603614 1.290416 0
M  V30 7 C 4.113459 0.064347 0.465761 0
M  V30 8 C 4.634606 0.819005 -0.563122 0
M  V30 9 C 4.239252 2.113765 -0.823176 0
M  V30 10 C 3.262581 2.677564 0.002781 0
M  V30 11 C 2.735890 1.919178 1.039974 0
M  V30 12 O 3.073070 3.961439 -0.491090 0
M  V30 13 C 3.572237 4.079270 -1.811425 0
M  V30 14 O 4.593121 3.070161 -1.769285 0
M  V30 15 C -0.273557 -2.215325 0.969825 0
M  V30 16 C -1.414961 -1.675981 1.519313 0
M  V30 17 C -2.672660 -2.168168 1.269106 0
M  V30 18 C -3.865819 -1.589168 1.855384 0
M  V30 19 C -5.028744 -2.277439 2.184607 0
M  V30 20 C -5.856919 -1.283517 2.706075 0
M  V30 21 O -5.230931 -0.122357 2.681799 0
M  V30 22 C -4.026599 -0.253294 2.177648 0
M  V30 23 C -2.843297 -3.252263 0.433966 0
M  V30 24 C -1.705431 -3.800085 -0.121829 0
M  V30 25 C -0.449744 -3.293971 0.139513 0
M  V30 26 N 0.609019 -3.883894 -0.440682 0
M  V30 27 H 2.760518 -3.786640 -0.598945 0
M  V30 28 H 0.372443 -0.075277 2.589972 0
M  V30 29 H 2.389457 0.752912 3.273169 0
M  V30 30 H 3.046306 -0.821139 2.855315 0
M  V30 31 H 4.368315 -0.934179 0.734636 0
M  V30 32 H 5.385918 0.340663 -1.173429 0
M  V30 33 H 1.991752 2.473399 1.599713 0
M  V30 34 H 2.736930 3.745488 -2.467617 0
M  V30 35 H 3.970351 5.058634 -2.067423 0
M  V30 36 H -1.387148 -0.844306 2.171241 0
M  V30 37 H -5.241387 -3.331680 2.065428 0
M  V30 38 H -6.854373 -1.538892 3.053206 0
M  V30 39 H -3.344776 0.576158 2.066962 0
M  V30 40 H -3.816625 -3.655286 0.223014 0
M  V30 41 H -1.788555 -4.655819 -0.786692 0
M  V30 END ATOM
M  V30 BEGIN BOND
M  V30 1 2 1 2
M  V30 2 1 2 3
M  V30 3 1 3 4
M  V30 4 1 4 5
M  V30 5 1 5 6
M  V30 6 2 6 7
M  V30 7 1 7 8
M  V30 8 2 8 9
M  V30 9 1 9 10
M  V30 10 2 10 11
M  V30 11 1 10 12
M  V30 12 1 12 13
M  V30 13 1 13 14
M  V30 14 2 3 15
M  V30 15 1 15 16
M  V30 16 2 16 17
M  V30 17 1 17 18
M  V30 18 1 18 19
M  V30 19 2 19 20
M  V30 20 1 20 21
M  V30 21 1 21 22
M  V30 22 1 17 23
M  V30 23 2 23 24
M  V30 24 1 24 25
M  V30 25 2 25 26
M  V30 26 1 26 1
M  V30 27 1 11 6
M  V30 28 1 25 15
M  V30 29 1 14 9
M  V30 30 2 22 18
M  V30 31 1 1 27
M  V30 32 1 4 28
M  V30 33 1 5 29
M  V30 34 1 5 30
M  V30 35 1 7 31
M  V30 36 1 8 32
M  V30 37 1 11 33
M  V30 38 1 13 34
M  V30 39 1 13 35
M  V30 40 1 16 36
M  V30 41 1 19 37
M  V30 42 1 20 38
M  V30 43 1 22 39
M  V30 44 1 23 40
M  V30 45 1 24 41
M  V30 END BOND
M  V30 END CTAB
M  END
>  <Dataset>  (877) 
ChEMBL_Kinases

>  <Ligand_Instance>  (877) 
nan

>  <PDB_ID>  (877) 
nan

>  <Standardized_SMILES>  (877) 
c1nc(NCc2ccc3c(c2)OCO3)c2cc(-c3ccoc3)ccc2n1

>  <Name>  (877) 
nan

>  <Pocket>  (877) 
nan

>  <ATP_Site>  (877) 
nan

>  <Peripheral>  (877) 
nan

>  <Num_H_Atoms_ProtBoundConf>  (877) 
nan

>  <Num_Resolved_Atoms>  (877) 
nan

>  <Num_Not_Resolved_Atoms>  (877) 
nan

$$$$
CHEMBL1494091
     RDKit          3D

  0  0  0  0  0  0  0  0  0  0999 V3000
M  V30 BEGIN CTAB
M  V30 COUNTS 47 49 0 0 0
M  V30 BEGIN ATOM
M  V30 1 C -1.253875 -6.816998 2.464023 0
M  V30 2 N -1.467570 -5.523267 1.841590 0
M  V30 3 C -0.882266 -5.215220 0.661166 0
M  V30 4 O -0.137138 -6.029384 0.062081 0
M  V30 5 C -1.121045 -3.970097 0.115855 0
M  V30 6 N -0.730933 -3.326419 -0.999128 0
M  V30 7 C -1.277150 -2.074771 -1.050299 0
M  V30 8 C -0.961188 -1.221418 -2.221455 0
M  V30 9 O 0.191666 -0.483006 -2.089734 0
M  V30 10 C 0.558048 0.466902 -1.196589 0
M  V30 11 C -0.032870 1.060952 -0.111778 0
M  V30 12 C 0.570692 2.018816 0.639732 0
M  V30 13 C 1.830008 2.456326 0.352246 0
M  V30 14 C 2.403629 3.499443 1.224311 0
M  V30 15 C 2.124733 4.901525 0.780004 0
M  V30 16 C 3.909210 3.326102 1.266920 0
M  V30 17 C 1.901521 3.314711 2.651688 0
M  V30 18 C 2.483237 1.893179 -0.736005 0
M  V30 19 C 1.846140 0.906762 -1.499849 0
M  V30 20 N -2.011604 -1.979266 0.069293 0
M  V30 21 C -1.941400 -3.101649 0.796322 0
M  V30 22 N -2.504946 -3.446024 1.968662 0
M  V30 23 C -3.365046 -2.521558 2.671656 0
M  V30 24 C -2.281050 -4.656163 2.511918 0
M  V30 25 O -2.819599 -4.953309 3.608325 0
M  V30 26 H -2.175593 -7.421985 2.339802 0
M  V30 27 H -0.445579 -7.380062 1.951483 0
M  V30 28 H -1.008654 -6.677242 3.534843 0
M  V30 29 H -0.876900 -1.826150 -3.157279 0
M  V30 30 H -1.838978 -0.560624 -2.407272 0
M  V30 31 H -1.012574 0.678164 0.057006 0
M  V30 32 H -0.021981 2.389548 1.460429 0
M  V30 33 H 2.879178 5.258982 0.058579 0
M  V30 34 H 1.083076 5.033658 0.382658 0
M  V30 35 H 2.149234 5.536877 1.693788 0
M  V30 36 H 4.161333 2.260303 1.143400 0
M  V30 37 H 4.312695 3.734106 2.211733 0
M  V30 38 H 4.373802 3.884639 0.443874 0
M  V30 39 H 0.964401 3.876209 2.792341 0
M  V30 40 H 1.731683 2.214180 2.827835 0
M  V30 41 H 2.661095 3.668769 3.383557 0
M  V30 42 H 3.476966 2.276286 -0.917953 0
M  V30 43 H 2.510826 0.583315 -2.310552 0
M  V30 44 H -2.533611 -1.118312 0.262511 0
M  V30 45 H -4.348240 -3.016585 2.840673 0
M  V30 46 H -3.557335 -1.606983 2.090448 0
M  V30 47 H -2.925960 -2.257534 3.658735 0
M  V30 END ATOM
M  V30 BEGIN BOND
M  V30 1 1 1 2
M  V30 2 1 2 3
M  V30 3 2 3 4
M  V30 4 1 3 5
M  V30 5 1 5 6
M  V30 6 2 6 7
M  V30 7 1 7 8
M  V30 8 1 8 9
M  V30 9 1 9 10
M  V30 10 2 10 11
M  V30 11 1 11 12
M  V30 12 2 12 13
M  V30 13 1 13 14
M  V30 14 1 14 15
M  V30 15 1 14 16
M  V30 16 1 14 17
M  V30 17 1 13 18
M  V30 18 2 18 19
M  V30 19 1 7 20
M  V30 20 1 20 21
M  V30 21 1 21 22
M  V30 22 1 22 23
M  V30 23 1 22 24
M  V30 24 2 24 25
M  V30 25 1 24 2
M  V30 26 2 21 5
M  V30 27 1 19 10
M  V30 28 1 1 26
M  V30 29 1 1 27
M  V30 30 1 1 28
M  V30 31 1 8 29
M  V30 32 1 8 30
M  V30 33 1 11 31
M  V30 34 1 12 32
M  V30 35 1 15 33
M  V30 36 1 15 34
M  V30 37 1 15 35
M  V30 38 1 16 36
M  V30 39 1 16 37
M  V30 40 1 16 38
M  V30 41 1 17 39
M  V30 42 1 17 40
M  V30 43 1 17 41
M  V30 44 1 18 42
M  V30 45 1 19 43
M  V30 46 1 20 44
M  V30 47 1 23 45
M  V30 48 1 23 46
M  V30 49 1 23 47
M  V30 END BOND
M  V30 END CTAB
M  END
>  <Dataset>  (878) 
ChEMBL_Kinases

>  <Ligand_Instance>  (878) 
nan

>  <PDB_ID>  (878) 
nan

>  <Standardized_SMILES>  (878) 
Cn1c(=O)c2nc(COc3ccc(C(C)(C)C)cc3)[nH]c2n(C)c1=O

>  <Name>  (878) 
nan

>  <Pocket>  (878) 
nan

>  <ATP_Site>  (878) 
nan

>  <Peripheral>  (878) 
nan

>  <Num_H_Atoms_ProtBoundConf>  (878) 
nan

>  <Num_Resolved_Atoms>  (878) 
nan

>  <Num_Not_Resolved_Atoms>  (878) 
nan

$$$$
CHEMBL1494026
     RDKit          3D

  0  0  0  0  0  0  0  0  0  0999 V3000
M  V30 BEGIN CTAB
M  V30 COUNTS 57 59 0 0 0
M  V30 BEGIN ATOM
M  V30 1 C -0.089626 -2.176446 2.742948 0
M  V30 2 C 1.143276 -1.987733 1.860709 0
M  V30 3 C 2.294238 -1.493229 2.611509 0
M  V30 4 C 3.343492 -2.345607 2.966812 0
M  V30 5 C 4.475294 -1.992171 3.670207 0
M  V30 6 C 4.559588 -0.672508 4.048934 0
M  V30 7 C 3.569679 0.266636 3.748610 0
M  V30 8 C 2.471631 -0.181324 3.039484 0
M  V30 9 N 1.369105 0.666315 2.654067 0
M  V30 10 C 1.527555 1.275019 1.384532 0
M  V30 11 O 2.600286 1.021738 0.732244 0
M  V30 12 C 0.675375 2.197262 0.594861 0
M  V30 13 N -0.551212 2.565198 1.182088 0
M  V30 14 C -0.469968 3.388806 2.336679 0
M  V30 15 C -1.654735 1.719378 1.121861 0
M  V30 16 C -2.193067 1.305318 -0.177072 0
M  V30 17 N -3.180795 1.902552 -0.921031 0
M  V30 18 C -3.578308 1.428465 -2.089833 0
M  V30 19 N -4.611567 2.113565 -2.794529 0
M  V30 20 N -3.023056 0.309035 -2.626850 0
M  V30 21 C -2.038149 -0.312697 -1.917766 0
M  V30 22 N -1.365593 -1.491090 -2.349959 0
M  V30 23 C -1.448667 -2.901958 -2.205902 0
M  V30 24 C -2.456492 -3.395438 -1.403409 0
M  V30 25 C -2.534863 -4.758025 -1.256038 0
M  V30 26 C -1.627336 -5.593891 -1.896800 0
M  V30 27 C -0.647114 -5.004527 -2.684790 0
M  V30 28 C -0.511725 -3.644602 -2.875456 0
M  V30 29 C 0.548796 -3.061733 -3.724521 0
M  V30 30 N -1.686545 0.217447 -0.747684 0
M  V30 31 H 0.146246 -2.404452 3.782191 0
M  V30 32 H -0.712945 -1.249314 2.737959 0
M  V30 33 H -0.736971 -2.950725 2.256125 0
M  V30 34 H 0.827629 -1.329859 1.028917 0
M  V30 35 H 1.421157 -2.973277 1.417544 0
M  V30 36 H 3.260733 -3.393839 2.658459 0
M  V30 37 H 5.220612 -2.739493 3.886796 0
M  V30 38 H 5.426160 -0.363546 4.598634 0
M  V30 39 H 3.619949 1.289713 4.032738 0
M  V30 40 H 0.466601 0.950064 3.084713 0
M  V30 41 H 0.612998 1.906424 -0.475537 0
M  V30 42 H 1.287546 3.141810 0.541338 0
M  V30 43 H -0.985826 4.357264 2.211243 0
M  V30 44 H -0.988539 2.854183 3.174719 0
M  V30 45 H 0.563925 3.602044 2.684993 0
M  V30 46 H -1.469426 0.798132 1.707373 0
M  V30 47 H -2.496478 2.219957 1.661419 0
M  V30 48 H -4.621462 2.963551 -3.399674 0
M  V30 49 H -5.540381 1.624286 -2.642025 0
M  V30 50 H -0.646805 -0.988201 -2.914328 0
M  V30 51 H -3.154346 -2.700021 -0.915893 0
M  V30 52 H -3.311010 -5.177281 -0.634051 0
M  V30 53 H -1.677049 -6.680962 -1.789201 0
M  V30 54 H 0.058455 -5.676166 -3.182447 0
M  V30 55 H 0.983935 -2.141860 -3.334482 0
M  V30 56 H 0.222028 -2.985662 -4.777750 0
M  V30 57 H 1.375780 -3.830279 -3.732589 0
M  V30 END ATOM
M  V30 BEGIN BOND
M  V30 1 1 1 2
M  V30 2 1 2 3
M  V30 3 2 3 4
M  V30 4 1 4 5
M  V30 5 2 5 6
M  V30 6 1 6 7
M  V30 7 2 7 8
M  V30 8 1 8 9
M  V30 9 1 9 10
M  V30 10 2 10 11
M  V30 11 1 10 12
M  V30 12 1 12 13
M  V30 13 1 13 14
M  V30 14 1 13 15
M  V30 15 1 15 16
M  V30 16 2 16 17
M  V30 17 1 17 18
M  V30 18 1 18 19
M  V30 19 2 18 20
M  V30 20 1 20 21
M  V30 21 1 21 22
M  V30 22 1 22 23
M  V30 23 2 23 24
M  V30 24 1 24 25
M  V30 25 2 25 26
M  V30 26 1 26 27
M  V30 27 2 27 28
M  V30 28 1 28 29
M  V30 29 2 21 30
M  V30 30 1 8 3
M  V30 31 1 30 16
M  V30 32 1 28 23
M  V30 33 1 1 31
M  V30 34 1 1 32
M  V30 35 1 1 33
M  V30 36 1 2 34
M  V30 37 1 2 35
M  V30 38 1 4 36
M  V30 39 1 5 37
M  V30 40 1 6 38
M  V30 41 1 7 39
M  V30 42 1 9 40
M  V30 43 1 12 41
M  V30 44 1 12 42
M  V30 45 1 14 43
M  V30 46 1 14 44
M  V30 47 1 14 45
M  V30 48 1 15 46
M  V30 49 1 15 47
M  V30 50 1 19 48
M  V30 51 1 19 49
M  V30 52 1 22 50
M  V30 53 1 24 51
M  V30 54 1 25 52
M  V30 55 1 26 53
M  V30 56 1 27 54
M  V30 57 1 29 55
M  V30 58 1 29 56
M  V30 59 1 29 57
M  V30 END BOND
M  V30 END CTAB
M  END
>  <Dataset>  (879) 
ChEMBL_Kinases

>  <Ligand_Instance>  (879) 
nan

>  <PDB_ID>  (879) 
nan

>  <Standardized_SMILES>  (879) 
CCc1ccccc1NC(=O)CN(C)Cc1nc(N)nc(Nc2ccccc2C)n1

>  <Name>  (879) 
nan

>  <Pocket>  (879) 
nan

>  <ATP_Site>  (879) 
nan

>  <Peripheral>  (879) 
nan

>  <Num_H_Atoms_ProtBoundConf>  (879) 
nan

>  <Num_Resolved_Atoms>  (879) 
nan

>  <Num_Not_Resolved_Atoms>  (879) 
nan

$$$$
CHEMBL1493784
     RDKit          3D

  0  0  0  0  0  0  0  0  0  0999 V3000
M  V30 BEGIN CTAB
M  V30 COUNTS 53 55 0 0 0
M  V30 BEGIN ATOM
M  V30 1 C 3.855707 -3.258656 1.692334 0
M  V30 2 O 3.481622 -2.049816 1.039749 0
M  V30 3 C 3.900146 -1.748912 -0.226384 0
M  V30 4 O 4.604739 -2.749797 -0.537826 0
M  V30 5 C 3.592461 -0.568240 -0.988308 0
M  V30 6 C 4.111675 -0.446862 -2.256720 0
M  V30 7 C 3.887245 0.635068 -3.080274 0
M  V30 8 C 3.099596 1.678314 -2.639875 0
M  V30 9 C 2.590033 1.538832 -1.369964 0
M  V30 10 N 1.796007 2.607618 -0.918396 0 CHG=1 VAL=4
M  V30 11 O 1.941247 3.790484 -1.339156 0
M  V30 12 O 0.832929 3.210017 -0.200481 0 CHG=-1 VAL=1
M  V30 13 C 2.808415 0.460780 -0.539122 0
M  V30 14 C 2.257805 0.322911 0.830376 0
M  V30 15 N 1.215333 -0.624119 0.834182 0
M  V30 16 C 0.546973 -0.875607 2.079499 0
M  V30 17 C -0.836892 -0.178831 2.086240 0
M  V30 18 N -1.810994 -0.905527 1.302060 0
M  V30 19 C -3.194269 -1.104732 1.461444 0
M  V30 20 C -3.902291 -0.418045 2.458808 0
M  V30 21 C -3.347234 0.591116 3.352470 0
M  V30 22 C -5.272195 -0.686948 2.620248 0
M  V30 23 C -5.986149 -1.587079 1.861473 0
M  V30 24 C -5.224746 -2.220163 0.904943 0
M  V30 25 C -3.856769 -2.036005 0.652128 0
M  V30 26 C -3.282997 -2.861436 -0.411049 0
M  V30 27 C -0.946494 -1.334875 0.217141 0
M  V30 28 C 0.180894 -0.325788 -0.093078 0
M  V30 29 H 4.841614 -3.145949 2.158191 0
M  V30 30 H 3.093061 -3.445372 2.502522 0
M  V30 31 H 3.784340 -4.141474 1.017556 0
M  V30 32 H 4.733959 -1.239510 -2.643118 0
M  V30 33 H 4.332901 0.659984 -4.073562 0
M  V30 34 H 2.902485 2.540494 -3.256501 0
M  V30 35 H 1.799772 1.321231 1.084970 0
M  V30 36 H 3.038614 0.177363 1.591060 0
M  V30 37 H 0.443014 -1.922936 2.328029 0
M  V30 38 H 1.136125 -0.363869 2.863130 0
M  V30 39 H -0.711748 0.880606 1.786689 0
M  V30 40 H -1.026631 -0.164873 3.173719 0
M  V30 41 H -4.228517 1.255060 3.675589 0
M  V30 42 H -2.722401 1.381806 2.850659 0
M  V30 43 H -2.977772 0.259905 4.330819 0
M  V30 44 H -5.842869 -0.171610 3.385025 0
M  V30 45 H -7.033558 -1.784515 1.993165 0
M  V30 46 H -5.797941 -2.939414 0.296271 0
M  V30 47 H -3.970470 -3.775787 -0.505940 0
M  V30 48 H -3.369052 -2.444121 -1.441381 0
M  V30 49 H -2.328278 -3.367684 -0.188870 0
M  V30 50 H -0.387487 -2.252337 0.408646 0
M  V30 51 H -1.481649 -1.286481 -0.761835 0
M  V30 52 H 0.504827 -0.584098 -1.147189 0
M  V30 53 H -0.188070 0.685897 -0.152503 0
M  V30 END ATOM
M  V30 BEGIN BOND
M  V30 1 1 1 2
M  V30 2 1 2 3
M  V30 3 2 3 4
M  V30 4 1 3 5
M  V30 5 2 5 6
M  V30 6 1 6 7
M  V30 7 2 7 8
M  V30 8 1 8 9
M  V30 9 1 9 10
M  V30 10 2 10 11
M  V30 11 1 10 12
M  V30 12 2 9 13
M  V30 13 1 13 14
M  V30 14 1 14 15
M  V30 15 1 15 16
M  V30 16 1 16 17
M  V30 17 1 17 18
M  V30 18 1 18 19
M  V30 19 2 19 20
M  V30 20 1 20 21
M  V30 21 1 20 22
M  V30 22 2 22 23
M  V30 23 1 23 24
M  V30 24 2 24 25
M  V30 25 1 25 26
M  V30 26 1 18 27
M  V30 27 1 27 28
M  V30 28 1 13 5
M  V30 29 1 28 15
M  V30 30 1 25 19
M  V30 31 1 1 29
M  V30 32 1 1 30
M  V30 33 1 1 31
M  V30 34 1 6 32
M  V30 35 1 7 33
M  V30 36 1 8 34
M  V30 37 1 14 35
M  V30 38 1 14 36
M  V30 39 1 16 37
M  V30 40 1 16 38
M  V30 41 1 17 39
M  V30 42 1 17 40
M  V30 43 1 21 41
M  V30 44 1 21 42
M  V30 45 1 21 43
M  V30 46 1 22 44
M  V30 47 1 23 45
M  V30 48 1 24 46
M  V30 49 1 26 47
M  V30 50 1 26 48
M  V30 51 1 26 49
M  V30 52 1 27 50
M  V30 53 1 27 51
M  V30 54 1 28 52
M  V30 55 1 28 53
M  V30 END BOND
M  V30 END CTAB
M  END
>  <Dataset>  (880) 
ChEMBL_Kinases

>  <Ligand_Instance>  (880) 
nan

>  <PDB_ID>  (880) 
nan

>  <Standardized_SMILES>  (880) 
COC(=O)c1cccc([N+](=O)[O-])c1CN1CCN(c2c(C)cccc2C)CC1

>  <Name>  (880) 
nan

>  <Pocket>  (880) 
nan

>  <ATP_Site>  (880) 
nan

>  <Peripheral>  (880) 
nan

>  <Num_H_Atoms_ProtBoundConf>  (880) 
nan

>  <Num_Resolved_Atoms>  (880) 
nan

>  <Num_Not_Resolved_Atoms>  (880) 
nan

$$$$
CHEMBL1497482
     RDKit          3D

  0  0  0  0  0  0  0  0  0  0999 V3000
M  V30 BEGIN CTAB
M  V30 COUNTS 46 46 0 0 0
M  V30 BEGIN ATOM
M  V30 1 C 0.171294 -4.176628 3.185404 0
M  V30 2 C 1.380889 -4.123680 2.278787 0
M  V30 3 C 1.931315 -5.501713 2.024311 0
M  V30 4 C 0.983356 -3.396884 1.004605 0
M  V30 5 O 0.571125 -2.105120 1.413107 0
M  V30 6 C 1.194951 -0.977157 0.940330 0
M  V30 7 O 2.152780 -1.064291 0.128619 0
M  V30 8 C 0.650120 0.273546 1.458705 0
M  V30 9 C -0.402055 0.394384 2.351554 0
M  V30 10 C -0.838415 1.631561 2.777871 0
M  V30 11 C -0.237576 2.787802 2.325853 0
M  V30 12 C 0.813466 2.706960 1.435847 0
M  V30 13 S 1.509743 4.202959 0.919454 0
M  V30 14 O 2.982893 3.969564 0.710596 0
M  V30 15 O 1.379446 5.232442 2.006471 0
M  V30 16 N 0.757071 4.837070 -0.490676 0
M  V30 17 C 0.861170 3.991216 -1.639280 0
M  V30 18 C 0.194909 4.568789 -2.858672 0
M  V30 19 F 0.324329 3.709427 -3.945939 0
M  V30 20 F 0.724469 5.788902 -3.167520 0
M  V30 21 F -1.161038 4.710561 -2.627450 0
M  V30 22 C 1.250601 1.452162 1.008041 0
M  V30 23 C -0.111573 -4.107371 0.281896 0
M  V30 24 O -0.084724 -5.276688 -0.218348 0
M  V30 25 N -1.340487 -3.440957 0.109658 0
M  V30 26 C -2.484810 -3.959597 -0.547980 0
M  V30 27 N -3.686620 -3.205257 -0.671630 0
M  V30 28 O -2.401212 -5.123853 -1.024673 0
M  V30 29 H -0.661782 -4.734882 2.755752 0
M  V30 30 H 0.454956 -4.662637 4.136939 0
M  V30 31 H -0.088932 -3.105866 3.398596 0
M  V30 32 H 2.129916 -3.471340 2.770379 0
M  V30 33 H 2.579617 -5.771001 2.901296 0
M  V30 34 H 2.552350 -5.570440 1.132815 0
M  V30 35 H 1.100149 -6.241582 2.054508 0
M  V30 36 H 1.819380 -3.271857 0.305622 0
M  V30 37 H -0.805483 -0.565620 2.646393 0
M  V30 38 H -1.673021 1.518351 3.476227 0
M  V30 39 H -0.675386 3.686923 2.737424 0
M  V30 40 H 1.196705 5.754020 -0.704551 0
M  V30 41 H 1.963150 3.896104 -1.859347 0
M  V30 42 H 0.497665 2.975789 -1.495355 0
M  V30 43 H 2.080300 1.457547 0.308730 0
M  V30 44 H -1.455824 -2.480074 0.485610 0
M  V30 45 H -4.604890 -3.138394 -0.155166 0
M  V30 46 H -4.605994 -3.119659 -0.176913 0
M  V30 END ATOM
M  V30 BEGIN BOND
M  V30 1 1 1 2
M  V30 2 1 2 3
M  V30 3 1 2 4
M  V30 4 1 4 5
M  V30 5 1 5 6
M  V30 6 2 6 7
M  V30 7 1 6 8
M  V30 8 2 8 9
M  V30 9 1 9 10
M  V30 10 2 10 11
M  V30 11 1 11 12
M  V30 12 1 12 13
M  V30 13 2 13 14
M  V30 14 2 13 15
M  V30 15 1 13 16
M  V30 16 1 16 17
M  V30 17 1 17 18
M  V30 18 1 18 19
M  V30 19 1 18 20
M  V30 20 1 18 21
M  V30 21 2 12 22
M  V30 22 1 4 23
M  V30 23 2 23 24
M  V30 24 1 23 25
M  V30 25 1 25 26
M  V30 26 1 26 27
M  V30 27 2 26 28
M  V30 28 1 22 8
M  V30 29 1 1 29
M  V30 30 1 1 30
M  V30 31 1 1 31
M  V30 32 1 2 32
M  V30 33 1 3 33
M  V30 34 1 3 34
M  V30 35 1 3 35
M  V30 36 1 4 36
M  V30 37 1 9 37
M  V30 38 1 10 38
M  V30 39 1 11 39
M  V30 40 1 16 40
M  V30 41 1 17 41
M  V30 42 1 17 42
M  V30 43 1 22 43
M  V30 44 1 25 44
M  V30 45 1 27 45
M  V30 46 1 27 46
M  V30 END BOND
M  V30 END CTAB
M  END
>  <Dataset>  (881) 
ChEMBL_Kinases

>  <Ligand_Instance>  (881) 
nan

>  <PDB_ID>  (881) 
nan

>  <Standardized_SMILES>  (881) 
CC(C)C(OC(=O)c1cccc(S(=O)(=O)NCC(F)(F)F)c1)C(=O)NC(N)=O

>  <Name>  (881) 
nan

>  <Pocket>  (881) 
nan

>  <ATP_Site>  (881) 
nan

>  <Peripheral>  (881) 
nan

>  <Num_H_Atoms_ProtBoundConf>  (881) 
nan

>  <Num_Resolved_Atoms>  (881) 
nan

>  <Num_Not_Resolved_Atoms>  (881) 
nan

$$$$
CHEMBL1492463
     RDKit          3D

  0  0  0  0  0  0  0  0  0  0999 V3000
M  V30 BEGIN CTAB
M  V30 COUNTS 62 64 0 0 0
M  V30 BEGIN ATOM
M  V30 1 C 1.282989 1.024716 4.513292 0
M  V30 2 C 2.377141 0.716552 3.477900 0
M  V30 3 C 2.594036 1.881179 2.565747 0
M  V30 4 C 3.017249 3.041031 3.436534 0
M  V30 5 C 4.043550 3.936385 2.834446 0
M  V30 6 C 5.175632 3.018843 2.381509 0
M  V30 7 C 4.648791 2.196466 1.276188 0
M  V30 8 N 3.322943 1.681555 1.390591 0
M  V30 9 C 3.192867 0.376970 0.807671 0
M  V30 10 C 3.352005 0.427862 -0.683219 0
M  V30 11 C 2.358398 1.275871 -1.410854 0
M  V30 12 N 1.007872 0.846011 -1.307313 0
M  V30 13 C -0.172149 0.560764 -0.624970 0
M  V30 14 O -0.093486 0.791510 0.603839 0
M  V30 15 C -1.401577 0.049280 -1.196362 0
M  V30 16 C -1.741653 -0.246906 -2.523794 0
M  V30 17 C -3.036140 -0.712426 -2.565663 0
M  V30 18 C -3.422438 -0.674461 -1.242571 0
M  V30 19 C -4.743031 -1.069367 -0.683667 0
M  V30 20 S -4.812981 -2.780118 -0.239725 0
M  V30 21 O -3.840541 -3.123113 0.850480 0
M  V30 22 O -6.210149 -3.050232 0.243952 0
M  V30 23 C -4.520882 -3.817975 -1.661964 0
M  V30 24 C -4.591582 -5.254809 -1.218460 0
M  V30 25 C -5.694706 -6.044928 -1.486477 0
M  V30 26 C -5.724717 -7.354049 -1.064751 0
M  V30 27 C -4.653632 -7.917845 -0.361166 0
M  V30 28 C -3.555856 -7.111018 -0.101775 0
M  V30 29 C -3.523871 -5.783572 -0.528385 0
M  V30 30 F -2.409322 -5.105063 -0.219667 0
M  V30 31 O -2.461153 -0.233100 -0.487313 0
M  V30 32 H 0.426910 1.479262 3.964898 0
M  V30 33 H 0.983412 0.085279 5.012424 0
M  V30 34 H 1.645869 1.757045 5.265312 0
M  V30 35 H 3.291100 0.497345 4.107721 0
M  V30 36 H 2.113551 -0.234747 3.034674 0
M  V30 37 H 1.549586 2.180240 2.227541 0
M  V30 38 H 2.161789 3.677099 3.776273 0
M  V30 39 H 3.462134 2.660879 4.405891 0
M  V30 40 H 3.712294 4.486966 1.948544 0
M  V30 41 H 4.474293 4.573433 3.626795 0
M  V30 42 H 5.949970 3.732420 1.969843 0
M  V30 43 H 5.671306 2.495769 3.199082 0
M  V30 44 H 5.338137 1.357351 1.054371 0
M  V30 45 H 4.639342 2.859587 0.360927 0
M  V30 46 H 3.996821 -0.321032 1.181510 0
M  V30 47 H 2.261292 -0.111441 1.065252 0
M  V30 48 H 4.401522 0.692865 -0.979699 0
M  V30 49 H 3.271732 -0.643372 -1.072430 0
M  V30 50 H 2.699038 1.341531 -2.459777 0
M  V30 51 H 2.421732 2.338213 -0.980814 0
M  V30 52 H 0.736889 0.594224 -2.321608 0
M  V30 53 H -1.062124 -0.114945 -3.347881 0
M  V30 54 H -3.617965 -1.031330 -3.420856 0
M  V30 55 H -4.976649 -0.476638 0.220432 0
M  V30 56 H -5.558274 -0.890600 -1.414265 0
M  V30 57 H -3.514801 -3.653531 -2.068201 0
M  V30 58 H -5.301701 -3.684108 -2.426329 0
M  V30 59 H -6.505070 -5.571876 -2.032459 0
M  V30 60 H -6.632142 -7.863961 -1.331911 0
M  V30 61 H -4.831011 -8.946716 -0.102859 0
M  V30 62 H -2.773773 -7.633463 0.447253 0
M  V30 END ATOM
M  V30 BEGIN BOND
M  V30 1 1 1 2
M  V30 2 1 2 3
M  V30 3 1 3 4
M  V30 4 1 4 5
M  V30 5 1 5 6
M  V30 6 1 6 7
M  V30 7 1 7 8
M  V30 8 1 8 9
M  V30 9 1 9 10
M  V30 10 1 10 11
M  V30 11 1 11 12
M  V30 12 1 12 13
M  V30 13 2 13 14
M  V30 14 1 13 15
M  V30 15 2 15 16
M  V30 16 1 16 17
M  V30 17 2 17 18
M  V30 18 1 18 19
M  V30 19 1 19 20
M  V30 20 2 20 21
M  V30 21 2 20 22
M  V30 22 1 20 23
M  V30 23 1 23 24
M  V30 24 2 24 25
M  V30 25 1 25 26
M  V30 26 2 26 27
M  V30 27 1 27 28
M  V30 28 2 28 29
M  V30 29 1 29 30
M  V30 30 1 18 31
M  V30 31 1 8 3
M  V30 32 1 31 15
M  V30 33 1 29 24
M  V30 34 1 1 32
M  V30 35 1 1 33
M  V30 36 1 1 34
M  V30 37 1 2 35
M  V30 38 1 2 36
M  V30 39 1 3 37
M  V30 40 1 4 38
M  V30 41 1 4 39
M  V30 42 1 5 40
M  V30 43 1 5 41
M  V30 44 1 6 42
M  V30 45 1 6 43
M  V30 46 1 7 44
M  V30 47 1 7 45
M  V30 48 1 9 46
M  V30 49 1 9 47
M  V30 50 1 10 48
M  V30 51 1 10 49
M  V30 52 1 11 50
M  V30 53 1 11 51
M  V30 54 1 12 52
M  V30 55 1 16 53
M  V30 56 1 17 54
M  V30 57 1 19 55
M  V30 58 1 19 56
M  V30 59 1 23 57
M  V30 60 1 23 58
M  V30 61 1 25 59
M  V30 62 1 26 60
M  V30 63 1 27 61
M  V30 64 1 28 62
M  V30 END BOND
M  V30 END CTAB
M  END
>  <Dataset>  (882) 
ChEMBL_Kinases

>  <Ligand_Instance>  (882) 
nan

>  <PDB_ID>  (882) 
nan

>  <Standardized_SMILES>  (882) 
CCC1CCCCN1CCCNC(=O)c1ccc(CS(=O)(=O)Cc2ccccc2F)o1

>  <Name>  (882) 
nan

>  <Pocket>  (882) 
nan

>  <ATP_Site>  (882) 
nan

>  <Peripheral>  (882) 
nan

>  <Num_H_Atoms_ProtBoundConf>  (882) 
nan

>  <Num_Resolved_Atoms>  (882) 
nan

>  <Num_Not_Resolved_Atoms>  (882) 
nan

$$$$
CHEMBL1492526
     RDKit          3D

  0  0  0  0  0  0  0  0  0  0999 V3000
M  V30 BEGIN CTAB
M  V30 COUNTS 47 50 0 0 0
M  V30 BEGIN ATOM
M  V30 1 C 1.964399 -5.444179 0.425342 0
M  V30 2 C 1.965172 -4.769166 -0.942990 0
M  V30 3 N 2.100902 -3.329529 -0.831864 0
M  V30 4 C 3.267433 -2.640776 -0.819384 0
M  V30 5 O 4.404719 -3.163056 -0.903519 0
M  V30 6 N 3.072132 -1.314342 -0.705165 0
M  V30 7 C 4.079075 -0.288842 -0.659632 0
M  V30 8 C 4.560162 0.038925 0.730790 0
M  V30 9 C 1.730254 -1.128110 -0.640583 0
M  V30 10 C 0.970667 0.020224 -0.519894 0
M  V30 11 C -0.410380 -0.058597 -0.475251 0
M  V30 12 S -1.382574 1.395713 -0.322037 0
M  V30 13 O -2.647406 1.294251 -1.090173 0
M  V30 14 O -0.609342 2.562743 -0.891106 0
M  V30 15 N -1.667622 1.781215 1.336919 0
M  V30 16 C -0.628959 2.090634 2.298523 0
M  V30 17 C -1.200331 1.425804 3.545852 0
M  V30 18 C -2.678077 1.639453 3.355728 0
M  V30 19 C -3.768832 1.662302 4.222122 0
M  V30 20 C -5.057267 1.890366 3.744489 0
M  V30 21 C -5.284516 2.101882 2.381550 0
M  V30 22 C -4.200819 2.078060 1.529148 0
M  V30 23 C -2.923358 1.852810 1.996192 0
M  V30 24 C -0.971772 -1.321293 -0.556385 0
M  V30 25 C -0.231286 -2.480463 -0.677242 0
M  V30 26 C 1.144034 -2.377395 -0.719716 0
M  V30 27 H 2.475442 -6.433044 0.410605 0
M  V30 28 H 2.380995 -4.815354 1.220493 0
M  V30 29 H 0.914634 -5.692288 0.740482 0
M  V30 30 H 2.873447 -5.139679 -1.466418 0
M  V30 31 H 1.029749 -4.994118 -1.481796 0
M  V30 32 H 3.726053 0.649589 -1.179675 0
M  V30 33 H 4.967028 -0.691050 -1.203654 0
M  V30 34 H 5.418409 -0.588525 1.060012 0
M  V30 35 H 4.941850 1.086410 0.768157 0
M  V30 36 H 3.736203 -0.092974 1.485036 0
M  V30 37 H 1.418784 1.002145 -0.457235 0
M  V30 38 H 0.357356 1.720057 2.012785 0
M  V30 39 H -0.599761 3.176479 2.547359 0
M  V30 40 H -0.851330 1.893605 4.478215 0
M  V30 41 H -0.938588 0.347061 3.472849 0
M  V30 42 H -3.582326 1.495501 5.290061 0
M  V30 43 H -5.909593 1.905730 4.439976 0
M  V30 44 H -6.276511 2.282358 1.977365 0
M  V30 45 H -4.335513 2.239342 0.453345 0
M  V30 46 H -2.059891 -1.356003 -0.518994 0
M  V30 47 H -0.692757 -3.458145 -0.739085 0
M  V30 END ATOM
M  V30 BEGIN BOND
M  V30 1 1 1 2
M  V30 2 1 2 3
M  V30 3 1 3 4
M  V30 4 2 4 5
M  V30 5 1 4 6
M  V30 6 1 6 7
M  V30 7 1 7 8
M  V30 8 1 6 9
M  V30 9 2 9 10
M  V30 10 1 10 11
M  V30 11 1 11 12
M  V30 12 2 12 13
M  V30 13 2 12 14
M  V30 14 1 12 15
M  V30 15 1 15 16
M  V30 16 1 16 17
M  V30 17 1 17 18
M  V30 18 2 18 19
M  V30 19 1 19 20
M  V30 20 2 20 21
M  V30 21 1 21 22
M  V30 22 2 22 23
M  V30 23 2 11 24
M  V30 24 1 24 25
M  V30 25 2 25 26
M  V30 26 1 26 3
M  V30 27 1 26 9
M  V30 28 1 23 15
M  V30 29 1 23 18
M  V30 30 1 1 27
M  V30 31 1 1 28
M  V30 32 1 1 29
M  V30 33 1 2 30
M  V30 34 1 2 31
M  V30 35 1 7 32
M  V30 36 1 7 33
M  V30 37 1 8 34
M  V30 38 1 8 35
M  V30 39 1 8 36
M  V30 40 1 10 37
M  V30 41 1 16 38
M  V30 42 1 16 39
M  V30 43 1 17 40
M  V30 44 1 17 41
M  V30 45 1 19 42
M  V30 46 1 20 43
M  V30 47 1 21 44
M  V30 48 1 22 45
M  V30 49 1 24 46
M  V30 50 1 25 47
M  V30 END BOND
M  V30 END CTAB
M  END
>  <Dataset>  (883) 
ChEMBL_Kinases

>  <Ligand_Instance>  (883) 
nan

>  <PDB_ID>  (883) 
nan

>  <Standardized_SMILES>  (883) 
CCn1c(=O)n(CC)c2cc(S(=O)(=O)N3CCc4ccccc43)ccc21

>  <Name>  (883) 
nan

>  <Pocket>  (883) 
nan

>  <ATP_Site>  (883) 
nan

>  <Peripheral>  (883) 
nan

>  <Num_H_Atoms_ProtBoundConf>  (883) 
nan

>  <Num_Resolved_Atoms>  (883) 
nan

>  <Num_Not_Resolved_Atoms>  (883) 
nan

$$$$
CHEMBL1492532
     RDKit          3D

  0  0  0  0  0  0  0  0  0  0999 V3000
M  V30 BEGIN CTAB
M  V30 COUNTS 26 27 0 0 0
M  V30 BEGIN ATOM
M  V30 1 O 0.044740 -1.217311 -0.512792 0
M  V30 2 C 0.090932 -0.746129 0.659589 0
M  V30 3 N 1.348518 -0.202908 0.977417 0
M  V30 4 C 2.461593 -0.214145 -0.009890 0
M  V30 5 N 3.337270 -0.845154 -0.369791 0
M  V30 6 C 4.205928 -0.556564 -1.321947 0
M  V30 7 C 4.041945 0.654911 -1.966897 0
M  V30 8 N 4.976119 1.043840 -3.044129 0 CHG=1 VAL=4
M  V30 9 O 4.751393 2.137523 -3.557261 0
M  V30 10 O 4.645246 2.285840 -3.560245 0 CHG=-1 VAL=1
M  V30 11 S 2.555423 1.332551 -1.100287 0
M  V30 12 C -0.987012 -0.723849 1.642940 0
M  V30 13 C -0.872866 -0.170319 2.900515 0
M  V30 14 C -1.988093 -0.223563 3.735229 0
M  V30 15 C -3.155400 -0.821128 3.281371 0
M  V30 16 C -3.269424 -1.375885 2.021257 0
M  V30 17 N -4.484720 -1.985503 1.581786 0 CHG=1 VAL=4
M  V30 18 O -4.530233 -2.466704 0.440073 0
M  V30 19 O -5.594203 -2.055085 2.374338 0 CHG=-1 VAL=1
M  V30 20 C -2.148876 -1.319315 1.189688 0
M  V30 21 H 1.599636 0.226556 1.869367 0
M  V30 22 H 4.992422 -1.304033 -1.527034 0
M  V30 23 H 0.049835 0.275902 3.194182 0
M  V30 24 H -1.954863 0.190076 4.718675 0
M  V30 25 H -4.066723 -0.892200 3.895677 0
M  V30 26 H -2.272631 -1.764335 0.206315 0
M  V30 END ATOM
M  V30 BEGIN BOND
M  V30 1 2 1 2
M  V30 2 1 2 3
M  V30 3 1 3 4
M  V30 4 2 4 5
M  V30 5 1 5 6
M  V30 6 2 6 7
M  V30 7 1 7 8
M  V30 8 2 8 9
M  V30 9 1 8 10
M  V30 10 1 7 11
M  V30 11 1 2 12
M  V30 12 2 12 13
M  V30 13 1 13 14
M  V30 14 2 14 15
M  V30 15 1 15 16
M  V30 16 1 16 17
M  V30 17 2 17 18
M  V30 18 1 17 19
M  V30 19 2 16 20
M  V30 20 1 11 4
M  V30 21 1 20 12
M  V30 22 1 3 21
M  V30 23 1 6 22
M  V30 24 1 13 23
M  V30 25 1 14 24
M  V30 26 1 15 25
M  V30 27 1 20 26
M  V30 END BOND
M  V30 END CTAB
M  END
>  <Dataset>  (884) 
ChEMBL_Kinases

>  <Ligand_Instance>  (884) 
nan

>  <PDB_ID>  (884) 
nan

>  <Standardized_SMILES>  (884) 
O=C(Nc1ncc([N+](=O)[O-])s1)c1cccc([N+](=O)[O-])c1

>  <Name>  (884) 
nan

>  <Pocket>  (884) 
nan

>  <ATP_Site>  (884) 
nan

>  <Peripheral>  (884) 
nan

>  <Num_H_Atoms_ProtBoundConf>  (884) 
nan

>  <Num_Resolved_Atoms>  (884) 
nan

>  <Num_Not_Resolved_Atoms>  (884) 
nan

$$$$
CHEMBL1492580
     RDKit          3D

  0  0  0  0  0  0  0  0  0  0999 V3000
M  V30 BEGIN CTAB
M  V30 COUNTS 61 63 0 0 0
M  V30 BEGIN ATOM
M  V30 1 C 0.487403 2.656400 4.121681 0
M  V30 2 C 1.733995 2.841680 3.352613 0
M  V30 3 C 2.299457 1.674998 2.633404 0
M  V30 4 C 2.621430 0.516747 3.568857 0
M  V30 5 C 3.419344 -0.520685 2.835158 0
M  V30 6 C 2.691328 -0.940248 1.573713 0
M  V30 7 C 2.310141 0.243734 0.727180 0
M  V30 8 N 1.711393 1.330119 1.405818 0
M  V30 9 C 0.349718 1.562908 1.160519 0
M  V30 10 C 0.111266 2.031455 -0.266755 0
M  V30 11 C -1.370398 2.259542 -0.475916 0
M  V30 12 N -2.082483 1.038992 -0.269190 0
M  V30 13 C -3.509994 0.978977 -0.403640 0
M  V30 14 O -4.135794 2.040065 -0.711137 0
M  V30 15 C -4.289745 -0.286672 -0.195860 0
M  V30 16 N -3.329648 -1.332687 0.151906 0
M  V30 17 N -2.711874 -2.096411 -0.738968 0
M  V30 18 C -1.827948 -3.042376 -0.370095 0
M  V30 19 C -1.208525 -3.817660 -1.439212 0
M  V30 20 C -1.554185 -3.549774 -2.748258 0
M  V30 21 C -0.970772 -4.270423 -3.770889 0
M  V30 22 C -0.046627 -5.258929 -3.538652 0
M  V30 23 C 0.608272 -6.062503 -4.617676 0
M  V30 24 C 0.304688 -5.533770 -2.233539 0
M  V30 25 C -0.280870 -4.808258 -1.185928 0
M  V30 26 C -1.562685 -3.218223 0.954558 0
M  V30 27 C -2.183177 -2.444292 1.929468 0
M  V30 28 C -3.074229 -1.498363 1.468404 0
M  V30 29 O -3.640801 -0.791781 2.357812 0
M  V30 30 H -0.007883 1.675551 4.056800 0
M  V30 31 H -0.283094 3.452556 3.926960 0
M  V30 32 H 0.691154 2.780540 5.228038 0
M  V30 33 H 2.528635 3.263706 4.028348 0
M  V30 34 H 1.555145 3.645786 2.605018 0
M  V30 35 H 3.360794 2.024327 2.346384 0
M  V30 36 H 1.737546 0.038755 3.981018 0
M  V30 37 H 3.301367 0.958277 4.337087 0
M  V30 38 H 4.444072 -0.201925 2.658599 0
M  V30 39 H 3.439146 -1.421171 3.492097 0
M  V30 40 H 1.862130 -1.626079 1.794468 0
M  V30 41 H 3.445698 -1.533584 0.986449 0
M  V30 42 H 1.710674 -0.121310 -0.117914 0
M  V30 43 H 3.277543 0.605699 0.268850 0
M  V30 44 H -0.329445 0.725287 1.353862 0
M  V30 45 H -0.005023 2.417103 1.784023 0
M  V30 46 H 0.453181 1.305636 -1.016193 0
M  V30 47 H 0.587980 3.036944 -0.377833 0
M  V30 48 H -1.704336 3.065946 0.238272 0
M  V30 49 H -1.543392 2.597462 -1.514504 0
M  V30 50 H -1.677728 0.113836 -0.015924 0
M  V30 51 H -5.003304 -0.154691 0.629238 0
M  V30 52 H -4.788075 -0.513789 -1.152266 0
M  V30 53 H -2.269033 -2.791929 -2.996969 0
M  V30 54 H -1.245731 -4.055341 -4.780601 0
M  V30 55 H 0.143952 -5.812695 -5.591148 0
M  V30 56 H 0.512765 -7.138726 -4.414504 0
M  V30 57 H 1.698283 -5.797757 -4.679738 0
M  V30 58 H 1.036467 -6.309105 -1.962816 0
M  V30 59 H 0.017030 -5.052374 -0.192886 0
M  V30 60 H -0.867279 -3.960522 1.273287 0
M  V30 61 H -1.975737 -2.579588 2.984551 0
M  V30 END ATOM
M  V30 BEGIN BOND
M  V30 1 1 1 2
M  V30 2 1 2 3
M  V30 3 1 3 4
M  V30 4 1 4 5
M  V30 5 1 5 6
M  V30 6 1 6 7
M  V30 7 1 7 8
M  V30 8 1 8 9
M  V30 9 1 9 10
M  V30 10 1 10 11
M  V30 11 1 11 12
M  V30 12 1 12 13
M  V30 13 2 13 14
M  V30 14 1 13 15
M  V30 15 1 15 16
M  V30 16 1 16 17
M  V30 17 2 17 18
M  V30 18 1 18 19
M  V30 19 2 19 20
M  V30 20 1 20 21
M  V30 21 2 21 22
M  V30 22 1 22 23
M  V30 23 1 22 24
M  V30 24 2 24 25
M  V30 25 1 18 26
M  V30 26 2 26 27
M  V30 27 1 27 28
M  V30 28 2 28 29
M  V30 29 1 8 3
M  V30 30 1 28 16
M  V30 31 1 25 19
M  V30 32 1 1 30
M  V30 33 1 1 31
M  V30 34 1 1 32
M  V30 35 1 2 33
M  V30 36 1 2 34
M  V30 37 1 3 35
M  V30 38 1 4 36
M  V30 39 1 4 37
M  V30 40 1 5 38
M  V30 41 1 5 39
M  V30 42 1 6 40
M  V30 43 1 6 41
M  V30 44 1 7 42
M  V30 45 1 7 43
M  V30 46 1 9 44
M  V30 47 1 9 45
M  V30 48 1 10 46
M  V30 49 1 10 47
M  V30 50 1 11 48
M  V30 51 1 11 49
M  V30 52 1 12 50
M  V30 53 1 15 51
M  V30 54 1 15 52
M  V30 55 1 20 53
M  V30 56 1 21 54
M  V30 57 1 23 55
M  V30 58 1 23 56
M  V30 59 1 23 57
M  V30 60 1 24 58
M  V30 61 1 25 59
M  V30 62 1 26 60
M  V30 63 1 27 61
M  V30 END BOND
M  V30 END CTAB
M  END
>  <Dataset>  (885) 
ChEMBL_Kinases

>  <Ligand_Instance>  (885) 
nan

>  <PDB_ID>  (885) 
nan

>  <Standardized_SMILES>  (885) 
CCC1CCCCN1CCCNC(=O)Cn1nc(-c2ccc(C)cc2)ccc1=O

>  <Name>  (885) 
nan

>  <Pocket>  (885) 
nan

>  <ATP_Site>  (885) 
nan

>  <Peripheral>  (885) 
nan

>  <Num_H_Atoms_ProtBoundConf>  (885) 
nan

>  <Num_Resolved_Atoms>  (885) 
nan

>  <Num_Not_Resolved_Atoms>  (885) 
nan

$$$$
CHEMBL1492648
     RDKit          3D

  0  0  0  0  0  0  0  0  0  0999 V3000
M  V30 BEGIN CTAB
M  V30 COUNTS 29 30 0 0 0
M  V30 BEGIN ATOM
M  V30 1 C -1.542382 -1.959275 4.355937 0
M  V30 2 S 0.171283 -1.517310 4.143349 0
M  V30 3 O 0.691349 -0.786091 5.350335 0
M  V30 4 O 0.933128 -2.800124 3.923969 0
M  V30 5 C 0.255209 -0.518862 2.706334 0
M  V30 6 N 0.453953 -1.098656 1.495810 0
M  V30 7 C 0.527394 -0.387881 0.359586 0
M  V30 8 C 0.743405 -1.095922 -0.897943 0
M  V30 9 C 0.858756 -2.468733 -0.828552 0
M  V30 10 C 1.066140 -3.237232 -1.969835 0
M  V30 11 C 1.150514 -2.560884 -3.170859 0
M  V30 12 C 1.041128 -1.191116 -3.287277 0
M  V30 13 C 0.832871 -0.454014 -2.115398 0
M  V30 14 C 0.388675 0.977836 0.488762 0
M  V30 15 C 0.186465 1.608905 1.689726 0
M  V30 16 C 0.041747 3.085030 1.786282 0
M  V30 17 F -0.099414 3.405177 3.134348 0
M  V30 18 F -1.137045 3.424350 1.140505 0
M  V30 19 F 1.129075 3.744612 1.269652 0
M  V30 20 N 0.125672 0.814935 2.783412 0
M  V30 21 H -1.688738 -2.787680 5.062123 0
M  V30 22 H -2.071496 -1.043868 4.698355 0
M  V30 23 H -1.909691 -2.249015 3.353429 0
M  V30 24 H 0.799809 -3.040736 0.084609 0
M  V30 25 H 1.162658 -4.311005 -1.967551 0
M  V30 26 H 1.312945 -3.101398 -4.110543 0
M  V30 27 H 1.113785 -0.697974 -4.255038 0
M  V30 28 H 0.743106 0.619034 -2.172904 0
M  V30 29 H 0.442594 1.575496 -0.401930 0
M  V30 END ATOM
M  V30 BEGIN BOND
M  V30 1 1 1 2
M  V30 2 2 2 3
M  V30 3 2 2 4
M  V30 4 1 2 5
M  V30 5 2 5 6
M  V30 6 1 6 7
M  V30 7 1 7 8
M  V30 8 2 8 9
M  V30 9 1 9 10
M  V30 10 2 10 11
M  V30 11 1 11 12
M  V30 12 2 12 13
M  V30 13 2 7 14
M  V30 14 1 14 15
M  V30 15 1 15 16
M  V30 16 1 16 17
M  V30 17 1 16 18
M  V30 18 1 16 19
M  V30 19 2 15 20
M  V30 20 1 20 5
M  V30 21 1 13 8
M  V30 22 1 1 21
M  V30 23 1 1 22
M  V30 24 1 1 23
M  V30 25 1 9 24
M  V30 26 1 10 25
M  V30 27 1 11 26
M  V30 28 1 12 27
M  V30 29 1 13 28
M  V30 30 1 14 29
M  V30 END BOND
M  V30 END CTAB
M  END
>  <Dataset>  (886) 
ChEMBL_Kinases

>  <Ligand_Instance>  (886) 
nan

>  <PDB_ID>  (886) 
nan

>  <Standardized_SMILES>  (886) 
CS(=O)(=O)c1nc(-c2ccccc2)cc(C(F)(F)F)n1

>  <Name>  (886) 
nan

>  <Pocket>  (886) 
nan

>  <ATP_Site>  (886) 
nan

>  <Peripheral>  (886) 
nan

>  <Num_H_Atoms_ProtBoundConf>  (886) 
nan

>  <Num_Resolved_Atoms>  (886) 
nan

>  <Num_Not_Resolved_Atoms>  (886) 
nan

$$$$
CHEMBL1492686
     RDKit          3D

  0  0  0  0  0  0  0  0  0  0999 V3000
M  V30 BEGIN CTAB
M  V30 COUNTS 38 40 0 0 0
M  V30 BEGIN ATOM
M  V30 1 C -2.076550 -2.335136 3.100770 0
M  V30 2 S -0.621942 -1.686423 3.973288 0
M  V30 3 C 0.673445 -1.358722 2.771965 0
M  V30 4 O 1.622322 -2.140963 2.322341 0
M  V30 5 C 2.366697 -1.510156 1.445784 0
M  V30 6 C 3.519012 -2.048361 0.726459 0
M  V30 7 C 3.913144 -3.351436 0.951394 0
M  V30 8 C 5.021843 -3.783023 0.223050 0
M  V30 9 C 5.706962 -2.989560 -0.673226 0
M  V30 10 C 5.284656 -1.687060 -0.874782 0
M  V30 11 C 4.189616 -1.233180 -0.167028 0
M  V30 12 N 1.857029 -0.274578 1.344040 0
M  V30 13 C 0.782776 -0.112314 2.157555 0
M  V30 14 S -0.149824 1.370620 2.298868 0
M  V30 15 O 0.804989 2.506700 2.065345 0
M  V30 16 O -0.709341 1.421115 3.695735 0
M  V30 17 C -1.465731 1.419184 1.166591 0
M  V30 18 C -1.160468 1.990339 -0.070843 0
M  V30 19 C -2.078891 2.114198 -1.092814 0
M  V30 20 C -3.362737 1.631864 -0.833165 0
M  V30 21 C -4.426479 1.717613 -1.867902 0
M  V30 22 C -3.684028 1.064318 0.382695 0
M  V30 23 C -2.742391 0.948836 1.400869 0
M  V30 24 H -2.137106 -3.444446 3.145569 0
M  V30 25 H -3.022167 -1.870098 3.466985 0
M  V30 26 H -1.988122 -2.071765 2.011201 0
M  V30 27 H 3.410884 -4.008596 1.640202 0
M  V30 28 H 5.385950 -4.793693 0.349553 0
M  V30 29 H 6.567457 -3.371294 -1.218840 0
M  V30 30 H 5.781735 -1.017865 -1.564386 0
M  V30 31 H 3.851854 -0.212480 -0.319322 0
M  V30 32 H -0.173202 2.377952 -0.313649 0
M  V30 33 H -1.846215 2.553742 -2.046800 0
M  V30 34 H -5.219285 2.432405 -1.642010 0
M  V30 35 H -4.869566 0.717884 -2.051554 0
M  V30 36 H -3.973862 2.021970 -2.856293 0
M  V30 37 H -4.649075 0.670818 0.657502 0
M  V30 38 H -2.908672 0.520455 2.377032 0
M  V30 END ATOM
M  V30 BEGIN BOND
M  V30 1 1 1 2
M  V30 2 1 2 3
M  V30 3 1 3 4
M  V30 4 1 4 5
M  V30 5 1 5 6
M  V30 6 2 6 7
M  V30 7 1 7 8
M  V30 8 2 8 9
M  V30 9 1 9 10
M  V30 10 2 10 11
M  V30 11 2 5 12
M  V30 12 1 12 13
M  V30 13 1 13 14
M  V30 14 2 14 15
M  V30 15 2 14 16
M  V30 16 1 14 17
M  V30 17 2 17 18
M  V30 18 1 18 19
M  V30 19 2 19 20
M  V30 20 1 20 21
M  V30 21 1 20 22
M  V30 22 2 22 23
M  V30 23 2 13 3
M  V30 24 1 23 17
M  V30 25 1 11 6
M  V30 26 1 1 24
M  V30 27 1 1 25
M  V30 28 1 1 26
M  V30 29 1 7 27
M  V30 30 1 8 28
M  V30 31 1 9 29
M  V30 32 1 10 30
M  V30 33 1 11 31
M  V30 34 1 18 32
M  V30 35 1 19 33
M  V30 36 1 21 34
M  V30 37 1 21 35
M  V30 38 1 21 36
M  V30 39 1 22 37
M  V30 40 1 23 38
M  V30 END BOND
M  V30 END CTAB
M  END
>  <Dataset>  (887) 
ChEMBL_Kinases

>  <Ligand_Instance>  (887) 
nan

>  <PDB_ID>  (887) 
nan

>  <Standardized_SMILES>  (887) 
CSc1oc(-c2ccccc2)nc1S(=O)(=O)c1ccc(C)cc1

>  <Name>  (887) 
nan

>  <Pocket>  (887) 
nan

>  <ATP_Site>  (887) 
nan

>  <Peripheral>  (887) 
nan

>  <Num_H_Atoms_ProtBoundConf>  (887) 
nan

>  <Num_Resolved_Atoms>  (887) 
nan

>  <Num_Not_Resolved_Atoms>  (887) 
nan

$$$$
CHEMBL1492716
     RDKit          3D

  0  0  0  0  0  0  0  0  0  0999 V3000
M  V30 BEGIN CTAB
M  V30 COUNTS 57 59 0 0 0
M  V30 BEGIN ATOM
M  V30 1 C 6.038475 -4.443667 0.229519 0
M  V30 2 C 6.700548 -4.695244 1.348538 0
M  V30 3 C 6.433263 -3.721224 2.470696 0
M  V30 4 N 5.477210 -2.724696 1.996489 0
M  V30 5 C 4.075096 -2.878737 2.119920 0
M  V30 6 O 3.514139 -3.899330 2.662324 0
M  V30 7 C 3.239723 -1.801728 1.592617 0
M  V30 8 C 1.988851 -1.692517 1.162038 0
M  V30 9 C 1.589300 -0.363745 0.715353 0
M  V30 10 C 0.395126 -0.052132 0.259704 0
M  V30 11 N -0.032057 1.226749 -0.189412 0
M  V30 12 C 0.785958 2.420394 -0.209606 0
M  V30 13 C 1.906360 2.363636 -1.206169 0
M  V30 14 C -1.385169 1.124708 -0.609195 0
M  V30 15 C -2.226693 2.087509 -1.119366 0
M  V30 16 C -3.514776 1.726798 -1.455695 0
M  V30 17 C -3.932875 0.424899 -1.277860 0
M  V30 18 S -5.561952 0.031753 -1.717757 0
M  V30 19 O -5.566371 -1.431679 -2.096897 0
M  V30 20 O -6.050765 0.852658 -2.864091 0
M  V30 21 N -6.664682 0.214673 -0.411230 0
M  V30 22 C -6.761077 1.542414 0.103390 0
M  V30 23 C -6.518381 -0.794142 0.613196 0
M  V30 24 C -3.042939 -0.494293 -0.762328 0
M  V30 25 C -1.744442 -0.189072 -0.408971 0
M  V30 26 N -0.664575 -0.984906 0.139816 0
M  V30 27 C -0.800555 -2.362981 0.498188 0
M  V30 28 C -0.892304 -2.580937 1.992736 0
M  V30 29 S 4.434844 -0.424038 1.643364 0
M  V30 30 C 5.865834 -1.501262 1.356088 0
M  V30 31 S 7.309817 -1.297628 0.587115 0
M  V30 32 H 5.331269 -3.731996 -0.166688 0
M  V30 33 H 6.046814 -4.977646 -0.713505 0
M  V30 34 H 7.330836 -5.565619 1.276115 0
M  V30 35 H 7.369994 -3.257431 2.783607 0
M  V30 36 H 5.946575 -4.319475 3.255442 0
M  V30 37 H 1.657943 -2.698894 1.284107 0
M  V30 38 H 2.284189 0.455982 0.740057 0
M  V30 39 H 1.260680 2.527124 0.800437 0
M  V30 40 H 0.138010 3.318436 -0.312757 0
M  V30 41 H 2.891145 2.662350 -0.755870 0
M  V30 42 H 1.738120 3.067379 -2.067405 0
M  V30 43 H 1.978182 1.347402 -1.607261 0
M  V30 44 H -1.857736 3.092042 -1.241442 0
M  V30 45 H -4.136135 2.536702 -1.856465 0
M  V30 46 H -6.929135 1.441917 1.213497 0
M  V30 47 H -5.863200 2.157502 -0.052213 0
M  V30 48 H -7.676406 2.025257 -0.299300 0
M  V30 49 H -7.562686 -1.037955 0.946048 0
M  V30 50 H -6.080201 -1.726362 0.204504 0
M  V30 51 H -5.977826 -0.443494 1.505824 0
M  V30 52 H -3.420250 -1.505667 -0.641427 0
M  V30 53 H -1.807871 -2.705022 0.115238 0
M  V30 54 H -0.104891 -3.026657 -0.033727 0
M  V30 55 H -0.348513 -3.468957 2.331897 0
M  V30 56 H -1.957961 -2.727150 2.337539 0
M  V30 57 H -0.583867 -1.635751 2.482325 0
M  V30 END ATOM
M  V30 BEGIN BOND
M  V30 1 2 1 2
M  V30 2 1 2 3
M  V30 3 1 3 4
M  V30 4 1 4 5
M  V30 5 2 5 6
M  V30 6 1 5 7
M  V30 7 2 7 8
M  V30 8 1 8 9
M  V30 9 2 9 10
M  V30 10 1 10 11
M  V30 11 1 11 12
M  V30 12 1 12 13
M  V30 13 1 11 14
M  V30 14 2 14 15
M  V30 15 1 15 16
M  V30 16 2 16 17
M  V30 17 1 17 18
M  V30 18 2 18 19
M  V30 19 2 18 20
M  V30 20 1 18 21
M  V30 21 1 21 22
M  V30 22 1 21 23
M  V30 23 1 17 24
M  V30 24 2 24 25
M  V30 25 1 25 26
M  V30 26 1 26 27
M  V30 27 1 27 28
M  V30 28 1 7 29
M  V30 29 1 29 30
M  V30 30 2 30 31
M  V30 31 1 30 4
M  V30 32 1 26 10
M  V30 33 1 25 14
M  V30 34 1 1 32
M  V30 35 1 1 33
M  V30 36 1 2 34
M  V30 37 1 3 35
M  V30 38 1 3 36
M  V30 39 1 8 37
M  V30 40 1 9 38
M  V30 41 1 12 39
M  V30 42 1 12 40
M  V30 43 1 13 41
M  V30 44 1 13 42
M  V30 45 1 13 43
M  V30 46 1 15 44
M  V30 47 1 16 45
M  V30 48 1 22 46
M  V30 49 1 22 47
M  V30 50 1 22 48
M  V30 51 1 23 49
M  V30 52 1 23 50
M  V30 53 1 23 51
M  V30 54 1 24 52
M  V30 55 1 27 53
M  V30 56 1 27 54
M  V30 57 1 28 55
M  V30 58 1 28 56
M  V30 59 1 28 57
M  V30 END BOND
M  V30 END CTAB
M  END
>  <Dataset>  (888) 
ChEMBL_Kinases

>  <Ligand_Instance>  (888) 
nan

>  <PDB_ID>  (888) 
nan

>  <Standardized_SMILES>  (888) 
C=CCN1C(=O)/C(=C/C=C2/N(CC)c3ccc(S(=O)(=O)N(C)C)cc3N2CC)SC1=S

>  <Name>  (888) 
nan

>  <Pocket>  (888) 
nan

>  <ATP_Site>  (888) 
nan

>  <Peripheral>  (888) 
nan

>  <Num_H_Atoms_ProtBoundConf>  (888) 
nan

>  <Num_Resolved_Atoms>  (888) 
nan

>  <Num_Not_Resolved_Atoms>  (888) 
nan

$$$$
CHEMBL1493551
     RDKit          3D

  0  0  0  0  0  0  0  0  0  0999 V3000
M  V30 BEGIN CTAB
M  V30 COUNTS 31 33 0 0 0
M  V30 BEGIN ATOM
M  V30 1 Br -0.954375 -5.491928 3.292419 0
M  V30 2 C 0.069987 -4.233228 2.288023 0
M  V30 3 C 0.884524 -3.273891 2.852189 0
M  V30 4 C 1.600846 -2.390217 2.035470 0
M  V30 5 C 1.517883 -2.447076 0.637471 0
M  V30 6 O 2.296924 -1.498490 0.073490 0
M  V30 7 C 2.145875 -0.223348 -0.303304 0
M  V30 8 N 3.589495 -0.308200 -0.722795 0
M  V30 9 S 3.752933 1.397945 -1.338421 0
M  V30 10 N 2.140126 1.925591 -1.013258 0
M  V30 11 C 1.433544 0.884934 -0.449858 0
M  V30 12 N 0.100154 0.854615 -0.041694 0
M  V30 13 C -0.534705 2.150271 -0.104732 0
M  V30 14 C -1.336057 2.339081 1.182398 0
M  V30 15 O -2.280394 1.359331 1.347094 0
M  V30 16 C -2.183713 0.321086 0.461619 0
M  V30 17 C -0.738238 -0.207519 0.405494 0
M  V30 18 C 0.680857 -3.434330 0.104699 0
M  V30 19 C -0.021203 -4.300675 0.913865 0
M  V30 20 H 0.934441 -3.246940 3.931440 0
M  V30 21 H 2.203740 -1.685507 2.628737 0
M  V30 22 H -1.232957 2.142542 -0.960175 0
M  V30 23 H 0.172372 3.005608 -0.150262 0
M  V30 24 H -1.895985 3.299713 1.051048 0
M  V30 25 H -0.661083 2.460088 2.035733 0
M  V30 26 H -2.763569 -0.567791 0.828394 0
M  V30 27 H -2.509466 0.645067 -0.532298 0
M  V30 28 H -0.812307 -1.049019 -0.311805 0
M  V30 29 H -0.519546 -0.566161 1.416715 0
M  V30 30 H 0.693493 -3.386113 -0.980281 0
M  V30 31 H -0.618957 -4.999751 0.338049 0
M  V30 END ATOM
M  V30 BEGIN BOND
M  V30 1 1 1 2
M  V30 2 2 2 3
M  V30 3 1 3 4
M  V30 4 2 4 5
M  V30 5 1 5 6
M  V30 6 1 6 7
M  V30 7 2 7 8
M  V30 8 1 8 9
M  V30 9 1 9 10
M  V30 10 2 10 11
M  V30 11 1 11 12
M  V30 12 1 12 13
M  V30 13 1 13 14
M  V30 14 1 14 15
M  V30 15 1 15 16
M  V30 16 1 16 17
M  V30 17 1 5 18
M  V30 18 2 18 19
M  V30 19 1 19 2
M  V30 20 1 11 7
M  V30 21 1 17 12
M  V30 22 1 3 20
M  V30 23 1 4 21
M  V30 24 1 13 22
M  V30 25 1 13 23
M  V30 26 1 14 24
M  V30 27 1 14 25
M  V30 28 1 16 26
M  V30 29 1 16 27
M  V30 30 1 17 28
M  V30 31 1 17 29
M  V30 32 1 18 30
M  V30 33 1 19 31
M  V30 END BOND
M  V30 END CTAB
M  END
>  <Dataset>  (889) 
ChEMBL_Kinases

>  <Ligand_Instance>  (889) 
nan

>  <PDB_ID>  (889) 
nan

>  <Standardized_SMILES>  (889) 
Brc1ccc(Oc2nsnc2N2CCOCC2)cc1

>  <Name>  (889) 
nan

>  <Pocket>  (889) 
nan

>  <ATP_Site>  (889) 
nan

>  <Peripheral>  (889) 
nan

>  <Num_H_Atoms_ProtBoundConf>  (889) 
nan

>  <Num_Resolved_Atoms>  (889) 
nan

>  <Num_Not_Resolved_Atoms>  (889) 
nan

$$$$
CHEMBL1492801
     RDKit          3D

  0  0  0  0  0  0  0  0  0  0999 V3000
M  V30 BEGIN CTAB
M  V30 COUNTS 39 42 0 0 0
M  V30 BEGIN ATOM
M  V30 1 C 1.521370 -4.965591 2.880845 0
M  V30 2 O 1.545995 -5.122297 1.474935 0
M  V30 3 C 1.228473 -4.034523 0.644392 0
M  V30 4 N 1.240380 -4.143400 -0.708520 0
M  V30 5 C 0.928629 -3.073908 -1.493920 0
M  V30 6 C 0.603244 -1.886605 -0.869687 0
M  V30 7 N 0.285020 -0.791229 -1.596712 0
M  V30 8 C -0.037305 0.384575 -0.985079 0
M  V30 9 C -0.390883 1.606319 -1.699337 0
M  V30 10 C -1.252293 1.688553 -2.773198 0
M  V30 11 C -1.538003 2.879702 -3.397345 0
M  V30 12 C -0.933495 4.044747 -2.925278 0
M  V30 13 F -1.229208 5.214504 -3.556750 0
M  V30 14 C -0.062453 4.017728 -1.852336 0
M  V30 15 C 0.193259 2.781168 -1.254468 0
M  V30 16 C -0.043020 0.472794 0.395304 0
M  V30 17 O -0.323285 1.501512 1.056249 0
M  V30 18 N 0.267649 -0.594893 1.139369 0
M  V30 19 C 0.300715 -0.642028 2.570957 0
M  V30 20 C 1.465340 -0.577537 3.305880 0
M  V30 21 C 1.356585 -0.633085 4.663762 0
M  V30 22 C 0.132457 -0.750556 5.322417 0
M  V30 23 C -1.020062 -0.812283 4.534828 0
M  V30 24 C -0.943727 -0.758360 3.151549 0
M  V30 25 C 0.583893 -1.750281 0.503237 0
M  V30 26 N 0.903671 -2.852606 1.201276 0
M  V30 27 H 2.566657 -4.702738 3.181595 0
M  V30 28 H 1.145802 -5.848719 3.413800 0
M  V30 29 H 0.913119 -4.049345 3.116899 0
M  V30 30 H 0.941812 -3.173795 -2.571729 0
M  V30 31 H -1.699292 0.773954 -3.110038 0
M  V30 32 H -2.208363 2.943119 -4.232904 0
M  V30 33 H 0.388945 4.939534 -1.511760 0
M  V30 34 H 0.887320 2.856704 -0.421905 0
M  V30 35 H 2.401107 -0.486720 2.772943 0
M  V30 36 H 2.253126 -0.585432 5.287086 0
M  V30 37 H 0.070116 -0.792517 6.392267 0
M  V30 38 H -1.971014 -0.904756 5.082196 0
M  V30 39 H -1.885318 -0.812516 2.615294 0
M  V30 END ATOM
M  V30 BEGIN BOND
M  V30 1 1 1 2
M  V30 2 1 2 3
M  V30 3 2 3 4
M  V30 4 1 4 5
M  V30 5 2 5 6
M  V30 6 1 6 7
M  V30 7 2 7 8
M  V30 8 1 8 9
M  V30 9 2 9 10
M  V30 10 1 10 11
M  V30 11 2 11 12
M  V30 12 1 12 13
M  V30 13 1 12 14
M  V30 14 2 14 15
M  V30 15 1 8 16
M  V30 16 2 16 17
M  V30 17 1 16 18
M  V30 18 1 18 19
M  V30 19 2 19 20
M  V30 20 1 20 21
M  V30 21 2 21 22
M  V30 22 1 22 23
M  V30 23 2 23 24
M  V30 24 1 18 25
M  V30 25 2 25 26
M  V30 26 1 26 3
M  V30 27 1 25 6
M  V30 28 1 15 9
M  V30 29 1 24 19
M  V30 30 1 1 27
M  V30 31 1 1 28
M  V30 32 1 1 29
M  V30 33 1 5 30
M  V30 34 1 10 31
M  V30 35 1 11 32
M  V30 36 1 14 33
M  V30 37 1 15 34
M  V30 38 1 20 35
M  V30 39 1 21 36
M  V30 40 1 22 37
M  V30 41 1 23 38
M  V30 42 1 24 39
M  V30 END BOND
M  V30 END CTAB
M  END
>  <Dataset>  (890) 
ChEMBL_Kinases

>  <Ligand_Instance>  (890) 
nan

>  <PDB_ID>  (890) 
nan

>  <Standardized_SMILES>  (890) 
COc1ncc2nc(-c3ccc(F)cc3)c(=O)n(-c3ccccc3)c2n1

>  <Name>  (890) 
nan

>  <Pocket>  (890) 
nan

>  <ATP_Site>  (890) 
nan

>  <Peripheral>  (890) 
nan

>  <Num_H_Atoms_ProtBoundConf>  (890) 
nan

>  <Num_Resolved_Atoms>  (890) 
nan

>  <Num_Not_Resolved_Atoms>  (890) 
nan

$$$$
CHEMBL1492910
     RDKit          3D

  0  0  0  0  0  0  0  0  0  0999 V3000
M  V30 BEGIN CTAB
M  V30 COUNTS 56 60 0 0 0
M  V30 BEGIN ATOM
M  V30 1 C 3.857011 -3.159469 4.399760 0
M  V30 2 C 3.545842 -2.054059 3.452662 0
M  V30 3 C 4.528937 -1.174231 2.997324 0
M  V30 4 C 3.842638 -0.316712 2.155175 0
M  V30 5 C 4.341599 0.794499 1.400655 0
M  V30 6 C 5.541083 0.493019 0.740010 0
M  V30 7 C 6.185634 1.441178 -0.045517 0
M  V30 8 C 5.614822 2.708395 -0.166959 0
M  V30 9 C 4.436926 3.020691 0.475573 0
M  V30 10 C 3.830429 2.065889 1.238975 0
M  V30 11 N 2.559976 -0.640598 2.099652 0
M  V30 12 C 1.402734 -0.175150 1.452214 0
M  V30 13 C 0.456071 0.676511 1.995646 0
M  V30 14 C -0.652093 1.078798 1.277523 0
M  V30 15 C -0.830053 0.626977 -0.014090 0
M  V30 16 C -1.947019 0.965163 -0.892010 0
M  V30 17 O -2.049819 1.557073 -2.020137 0
M  V30 18 N -3.259264 0.568983 -0.441627 0
M  V30 19 C -4.465239 0.828473 -1.193579 0
M  V30 20 C -5.214597 -0.441927 -1.524180 0
M  V30 21 N -4.684257 -1.571036 -0.767515 0
M  V30 22 C -4.379830 -2.835887 -1.334827 0
M  V30 23 N -4.582102 -3.023391 -2.661306 0
M  V30 24 C -4.283638 -4.245670 -3.192574 0
M  V30 25 C -3.789353 -5.218742 -2.327137 0
M  V30 26 C -3.585986 -5.018001 -0.972838 0
M  V30 27 N -3.903089 -3.787407 -0.521679 0
M  V30 28 C -4.490449 -1.284173 0.638451 0
M  V30 29 C -3.581057 -0.117587 0.768599 0
M  V30 30 C 0.108666 -0.234098 -0.590537 0
M  V30 31 C 1.227299 -0.636499 0.143005 0
M  V30 32 N 2.354410 -1.706942 2.890209 0
M  V30 33 H 2.929881 -3.535677 4.897457 0
M  V30 34 H 4.269314 -4.061223 3.869277 0
M  V30 35 H 4.510476 -2.838134 5.240128 0
M  V30 36 H 5.591831 -1.121750 3.213054 0
M  V30 37 H 6.053858 -0.479149 0.784550 0
M  V30 38 H 7.108125 1.226475 -0.560327 0
M  V30 39 H 6.047193 3.505379 -0.756677 0
M  V30 40 H 3.991034 3.991220 0.388653 0
M  V30 41 H 2.906448 2.218090 1.778918 0
M  V30 42 H 0.617239 1.014619 3.002868 0
M  V30 43 H -1.397407 1.733697 1.669040 0
M  V30 44 H -5.137599 1.496590 -0.613491 0
M  V30 45 H -4.209300 1.351377 -2.133950 0
M  V30 46 H -6.294724 -0.372768 -1.279164 0
M  V30 47 H -5.149634 -0.661220 -2.608255 0
M  V30 48 H -4.430985 -4.436769 -4.247796 0
M  V30 49 H -3.547890 -6.193588 -2.731968 0
M  V30 50 H -3.204012 -5.786218 -0.333143 0
M  V30 51 H -5.478908 -1.041283 1.105064 0
M  V30 52 H -4.054456 -2.178365 1.145326 0
M  V30 53 H -2.612437 -0.463945 1.230174 0
M  V30 54 H -3.986425 0.582316 1.558059 0
M  V30 55 H 0.021619 -0.625677 -1.610697 0
M  V30 56 H 1.944033 -1.313931 -0.343177 0
M  V30 END ATOM
M  V30 BEGIN BOND
M  V30 1 1 1 2
M  V30 2 1 2 3
M  V30 3 2 3 4
M  V30 4 1 4 5
M  V30 5 2 5 6
M  V30 6 1 6 7
M  V30 7 2 7 8
M  V30 8 1 8 9
M  V30 9 2 9 10
M  V30 10 1 4 11
M  V30 11 1 11 12
M  V30 12 2 12 13
M  V30 13 1 13 14
M  V30 14 2 14 15
M  V30 15 1 15 16
M  V30 16 2 16 17
M  V30 17 1 16 18
M  V30 18 1 18 19
M  V30 19 1 19 20
M  V30 20 1 20 21
M  V30 21 1 21 22
M  V30 22 2 22 23
M  V30 23 1 23 24
M  V30 24 2 24 25
M  V30 25 1 25 26
M  V30 26 2 26 27
M  V30 27 1 21 28
M  V30 28 1 28 29
M  V30 29 1 15 30
M  V30 30 2 30 31
M  V30 31 1 11 32
M  V30 32 2 32 2
M  V30 33 1 10 5
M  V30 34 1 31 12
M  V30 35 1 29 18
M  V30 36 1 27 22
M  V30 37 1 1 33
M  V30 38 1 1 34
M  V30 39 1 1 35
M  V30 40 1 3 36
M  V30 41 1 6 37
M  V30 42 1 7 38
M  V30 43 1 8 39
M  V30 44 1 9 40
M  V30 45 1 10 41
M  V30 46 1 13 42
M  V30 47 1 14 43
M  V30 48 1 19 44
M  V30 49 1 19 45
M  V30 50 1 20 46
M  V30 51 1 20 47
M  V30 52 1 24 48
M  V30 53 1 25 49
M  V30 54 1 26 50
M  V30 55 1 28 51
M  V30 56 1 28 52
M  V30 57 1 29 53
M  V30 58 1 29 54
M  V30 59 1 30 55
M  V30 60 1 31 56
M  V30 END BOND
M  V30 END CTAB
M  END
>  <Dataset>  (891) 
ChEMBL_Kinases

>  <Ligand_Instance>  (891) 
nan

>  <PDB_ID>  (891) 
nan

>  <Standardized_SMILES>  (891) 
Cc1cc(-c2ccccc2)n(-c2ccc(C(=O)N3CCN(c4ncccn4)CC3)cc2)n1

>  <Name>  (891) 
nan

>  <Pocket>  (891) 
nan

>  <ATP_Site>  (891) 
nan

>  <Peripheral>  (891) 
nan

>  <Num_H_Atoms_ProtBoundConf>  (891) 
nan

>  <Num_Resolved_Atoms>  (891) 
nan

>  <Num_Not_Resolved_Atoms>  (891) 
nan

$$$$
CHEMBL1493011
     RDKit          3D

  0  0  0  0  0  0  0  0  0  0999 V3000
M  V30 BEGIN CTAB
M  V30 COUNTS 29 30 0 0 0
M  V30 BEGIN ATOM
M  V30 1 C -1.219818 -0.933241 3.529148 0
M  V30 2 C -0.991843 -0.845166 2.027113 0
M  V30 3 C -0.946448 -2.054028 1.253352 0
M  V30 4 C -0.122706 -2.216738 0.081291 0
M  V30 5 C -0.627741 -2.912128 -1.169886 0
M  V30 6 C 1.128827 -1.847224 -0.130932 0
M  V30 7 S 2.363682 -1.915094 -1.460200 0
M  V30 8 C 3.132205 -0.334617 -0.980978 0
M  V30 9 S 3.804859 0.916757 -1.795747 0
M  V30 10 N 3.015732 -0.412811 0.455559 0
M  V30 11 C 1.947867 -1.220282 0.933614 0
M  V30 12 O 1.700258 -1.404238 2.181115 0
M  V30 13 C -0.797310 0.430802 1.745931 0
M  V30 14 S -0.714704 2.031894 2.570900 0
M  V30 15 C 0.549392 2.674129 1.423278 0
M  V30 16 S 1.861702 3.620063 1.526055 0
M  V30 17 N 0.083529 2.080156 0.190077 0
M  V30 18 C -0.644981 0.872959 0.339059 0
M  V30 19 O -1.143575 0.201509 -0.637916 0
M  V30 20 H -2.114728 -0.345570 3.778451 0
M  V30 21 H -0.317676 -0.516548 4.030177 0
M  V30 22 H -1.276310 -1.990453 3.817150 0
M  V30 23 H -2.007649 -2.293759 0.933869 0
M  V30 24 H -0.680121 -2.896040 1.948173 0
M  V30 25 H -0.412808 -2.331564 -2.064444 0
M  V30 26 H -0.084244 -3.878474 -1.198957 0
M  V30 27 H -1.704098 -3.129992 -1.021199 0
M  V30 28 H 3.676391 0.095715 1.119116 0
M  V30 29 H 0.265214 2.501583 -0.774477 0
M  V30 END ATOM
M  V30 BEGIN BOND
M  V30 1 1 1 2
M  V30 2 1 2 3
M  V30 3 1 3 4
M  V30 4 1 4 5
M  V30 5 2 4 6
M  V30 6 1 6 7
M  V30 7 1 7 8
M  V30 8 2 8 9
M  V30 9 1 8 10
M  V30 10 1 10 11
M  V30 11 2 11 12
M  V30 12 2 2 13
M  V30 13 1 13 14
M  V30 14 1 14 15
M  V30 15 2 15 16
M  V30 16 1 15 17
M  V30 17 1 17 18
M  V30 18 2 18 19
M  V30 19 1 11 6
M  V30 20 1 18 13
M  V30 21 1 1 20
M  V30 22 1 1 21
M  V30 23 1 1 22
M  V30 24 1 3 23
M  V30 25 1 3 24
M  V30 26 1 5 25
M  V30 27 1 5 26
M  V30 28 1 5 27
M  V30 29 1 10 28
M  V30 30 1 17 29
M  V30 END BOND
M  V30 END CTAB
M  END
>  <Dataset>  (892) 
ChEMBL_Kinases

>  <Ligand_Instance>  (892) 
nan

>  <PDB_ID>  (892) 
nan

>  <Standardized_SMILES>  (892) 
C/C(C/C(C)=C1/SC(=S)NC1=O)=C1\SC(=S)NC1=O

>  <Name>  (892) 
nan

>  <Pocket>  (892) 
nan

>  <ATP_Site>  (892) 
nan

>  <Peripheral>  (892) 
nan

>  <Num_H_Atoms_ProtBoundConf>  (892) 
nan

>  <Num_Resolved_Atoms>  (892) 
nan

>  <Num_Not_Resolved_Atoms>  (892) 
nan

$$$$
CHEMBL1493179
     RDKit          3D

  0  0  0  0  0  0  0  0  0  0999 V3000
M  V30 BEGIN CTAB
M  V30 COUNTS 53 56 0 0 0
M  V30 BEGIN ATOM
M  V30 1 O 2.478541 -3.403267 1.431436 0
M  V30 2 C 1.702053 -2.569292 0.899208 0
M  V30 3 C 1.723682 -1.230986 0.221639 0
M  V30 4 C 3.181013 -0.752831 0.192272 0
M  V30 5 S 3.343579 0.847080 -0.599035 0
M  V30 6 C 2.549646 2.119600 0.341100 0
M  V30 7 N 2.652806 3.354491 -0.231385 0
M  V30 8 C 2.112223 4.448087 0.335279 0
M  V30 9 C 2.225796 5.769450 -0.282745 0
M  V30 10 C 2.883260 6.034930 -1.486424 0
M  V30 11 C 2.708745 7.410097 -1.631984 0
M  V30 12 C 1.987107 7.890031 -0.558974 0
M  V30 13 O 1.717247 6.864029 0.230063 0
M  V30 14 C 1.431599 4.331937 1.528930 0
M  V30 15 C 1.333871 3.086888 2.095302 0
M  V30 16 C 0.612015 2.895294 3.383148 0
M  V30 17 F 1.096107 1.835346 4.101409 0
M  V30 18 F -0.722237 2.656717 3.038456 0
M  V30 19 F 0.609657 4.071955 4.109785 0
M  V30 20 N 1.888691 1.990692 1.505363 0
M  V30 21 N 0.336133 -3.028121 0.942090 0
M  V30 22 C 0.080392 -4.318930 1.561347 0
M  V30 23 C -0.581043 -5.245098 0.532585 0
M  V30 24 N -1.805735 -4.599361 0.112268 0
M  V30 25 C -3.136264 -5.047317 0.325614 0
M  V30 26 C -4.271677 -4.391761 -0.079984 0
M  V30 27 C -5.528166 -4.867849 0.151094 0
M  V30 28 C -5.736900 -6.068246 0.824184 0
M  V30 29 C -4.602867 -6.726158 1.231108 0
M  V30 30 C -3.339355 -6.231976 0.989918 0
M  V30 31 C -1.466477 -3.379769 -0.585454 0
M  V30 32 C -0.890094 -2.437145 0.472189 0
M  V30 33 H 1.098114 -0.530470 0.815038 0
M  V30 34 H 1.351033 -1.401707 -0.802443 0
M  V30 35 H 3.755096 -1.518342 -0.374221 0
M  V30 36 H 3.592770 -0.704280 1.211811 0
M  V30 37 H 3.369534 5.259852 -2.064154 0
M  V30 38 H 3.145169 7.882867 -2.526128 0
M  V30 39 H 1.803028 8.957785 -0.589351 0
M  V30 40 H 0.999180 5.193423 1.986107 0
M  V30 41 H 1.027630 -4.784822 1.938225 0
M  V30 42 H -0.613446 -4.173133 2.408673 0
M  V30 43 H 0.162974 -5.323598 -0.309397 0
M  V30 44 H -0.711869 -6.197652 1.040667 0
M  V30 45 H -4.175200 -3.460426 -0.603906 0
M  V30 46 H -6.385309 -4.310365 -0.190803 0
M  V30 47 H -6.754261 -6.384107 0.971874 0
M  V30 48 H -4.813878 -7.669024 1.758018 0
M  V30 49 H -2.576056 -6.885771 1.383345 0
M  V30 50 H -2.300945 -2.915474 -1.125263 0
M  V30 51 H -0.641941 -3.541939 -1.334025 0
M  V30 52 H -0.737313 -1.433352 0.016631 0
M  V30 53 H -1.581594 -2.381969 1.357103 0
M  V30 END ATOM
M  V30 BEGIN BOND
M  V30 1 2 1 2
M  V30 2 1 2 3
M  V30 3 1 3 4
M  V30 4 1 4 5
M  V30 5 1 5 6
M  V30 6 2 6 7
M  V30 7 1 7 8
M  V30 8 1 8 9
M  V30 9 2 9 10
M  V30 10 1 10 11
M  V30 11 2 11 12
M  V30 12 1 12 13
M  V30 13 2 8 14
M  V30 14 1 14 15
M  V30 15 1 15 16
M  V30 16 1 16 17
M  V30 17 1 16 18
M  V30 18 1 16 19
M  V30 19 2 15 20
M  V30 20 1 2 21
M  V30 21 1 21 22
M  V30 22 1 22 23
M  V30 23 1 23 24
M  V30 24 1 24 25
M  V30 25 2 25 26
M  V30 26 1 26 27
M  V30 27 2 27 28
M  V30 28 1 28 29
M  V30 29 2 29 30
M  V30 30 1 24 31
M  V30 31 1 31 32
M  V30 32 1 20 6
M  V30 33 1 32 21
M  V30 34 1 13 9
M  V30 35 1 30 25
M  V30 36 1 3 33
M  V30 37 1 3 34
M  V30 38 1 4 35
M  V30 39 1 4 36
M  V30 40 1 10 37
M  V30 41 1 11 38
M  V30 42 1 12 39
M  V30 43 1 14 40
M  V30 44 1 22 41
M  V30 45 1 22 42
M  V30 46 1 23 43
M  V30 47 1 23 44
M  V30 48 1 26 45
M  V30 49 1 27 46
M  V30 50 1 28 47
M  V30 51 1 29 48
M  V30 52 1 30 49
M  V30 53 1 31 50
M  V30 54 1 31 51
M  V30 55 1 32 52
M  V30 56 1 32 53
M  V30 END BOND
M  V30 END CTAB
M  END
>  <Dataset>  (893) 
ChEMBL_Kinases

>  <Ligand_Instance>  (893) 
nan

>  <PDB_ID>  (893) 
nan

>  <Standardized_SMILES>  (893) 
O=C(CCSc1nc(-c2ccco2)cc(C(F)(F)F)n1)N1CCN(c2ccccc2)CC1

>  <Name>  (893) 
nan

>  <Pocket>  (893) 
nan

>  <ATP_Site>  (893) 
nan

>  <Peripheral>  (893) 
nan

>  <Num_H_Atoms_ProtBoundConf>  (893) 
nan

>  <Num_Resolved_Atoms>  (893) 
nan

>  <Num_Not_Resolved_Atoms>  (893) 
nan

$$$$
CHEMBL1493196
     RDKit          3D

  0  0  0  0  0  0  0  0  0  0999 V3000
M  V30 BEGIN CTAB
M  V30 COUNTS 58 58 0 0 0
M  V30 BEGIN ATOM
M  V30 1 C 0.998550 3.703015 4.109796 0
M  V30 2 C 1.200379 2.454285 4.974045 0
M  V30 3 O 0.856496 1.362324 4.145609 0
M  V30 4 C 0.916970 0.055221 4.595194 0
M  V30 5 O 1.318609 0.296327 5.772366 0
M  V30 6 C 0.569246 -1.166465 3.786263 0
M  V30 7 O 0.235710 -0.687063 2.503233 0
M  V30 8 C 1.057639 -0.005037 1.657292 0
M  V30 9 C 2.370413 0.319338 1.927853 0
M  V30 10 C 3.181802 1.010749 1.058513 0
M  V30 11 C 2.642734 1.395558 -0.147504 0
M  V30 12 N 3.455088 2.108147 -1.059797 0
M  V30 13 C 1.329307 1.070351 -0.418772 0
M  V30 14 C 0.491324 0.365381 0.459654 0
M  V30 15 C -0.853926 0.122450 -0.059683 0
M  V30 16 C -1.119993 -1.221023 -0.642874 0
M  V30 17 N -2.532952 -1.171192 -1.076051 0
M  V30 18 C -3.165318 -2.243290 -1.719979 0
M  V30 19 C -4.583169 -2.230165 -2.165071 0
M  V30 20 O -2.564859 -3.305490 -1.968051 0
M  V30 21 C -1.036902 -2.358032 0.275745 0
M  V30 22 O -2.066964 -3.018373 0.562420 0
M  V30 23 O -0.520960 -3.294110 1.133780 0
M  V30 24 C -1.260353 -4.300391 1.761081 0
M  V30 25 C -1.956633 -5.247209 0.826365 0
M  V30 26 C -0.348633 -1.485002 -1.882953 0
M  V30 27 O 0.886195 -1.540168 -1.558468 0
M  V30 28 O -0.734283 -1.658435 -3.184218 0
M  V30 29 C 0.225400 -1.899999 -4.181953 0
M  V30 30 C 1.227116 -0.767960 -4.293405 0
M  V30 31 H 0.048561 3.607554 3.523542 0
M  V30 32 H 1.837715 3.742638 3.393222 0
M  V30 33 H 1.024526 4.614084 4.744238 0
M  V30 34 H 0.631014 2.503624 5.909937 0
M  V30 35 H 2.297734 2.398827 5.140061 0
M  V30 36 H -0.326825 -1.609077 4.269559 0
M  V30 37 H 1.407487 -1.872422 3.785872 0
M  V30 38 H 2.827844 0.027122 2.858738 0
M  V30 39 H 4.206492 1.242494 1.315471 0
M  V30 40 H 3.291405 3.094964 -0.773777 0
M  V30 41 H 4.068541 1.718055 -1.833330 0
M  V30 42 H 0.988990 1.417372 -1.401384 0
M  V30 43 H -1.648095 0.261675 0.739558 0
M  V30 44 H -1.156320 0.871823 -0.831483 0
M  V30 45 H -3.176661 -0.344745 -0.942307 0
M  V30 46 H -5.054247 -3.148352 -1.741669 0
M  V30 47 H -5.075687 -1.330363 -1.786849 0
M  V30 48 H -4.672949 -2.215891 -3.264458 0
M  V30 49 H -0.491674 -4.906824 2.326827 0
M  V30 50 H -2.008865 -3.908747 2.489180 0
M  V30 51 H -1.764950 -6.295807 1.126950 0
M  V30 52 H -1.570262 -5.186559 -0.227720 0
M  V30 53 H -3.058873 -5.117436 0.792785 0
M  V30 54 H -0.310382 -2.063625 -5.125771 0
M  V30 55 H 0.737978 -2.846997 -3.893138 0
M  V30 56 H 1.387352 -0.422342 -5.331837 0
M  V30 57 H 0.901086 0.148810 -3.734066 0
M  V30 58 H 2.185644 -1.081449 -3.831317 0
M  V30 END ATOM
M  V30 BEGIN BOND
M  V30 1 1 1 2
M  V30 2 1 2 3
M  V30 3 1 3 4
M  V30 4 2 4 5
M  V30 5 1 4 6
M  V30 6 1 6 7
M  V30 7 1 7 8
M  V30 8 2 8 9
M  V30 9 1 9 10
M  V30 10 2 10 11
M  V30 11 1 11 12
M  V30 12 1 11 13
M  V30 13 2 13 14
M  V30 14 1 14 15
M  V30 15 1 15 16
M  V30 16 1 16 17
M  V30 17 1 17 18
M  V30 18 1 18 19
M  V30 19 2 18 20
M  V30 20 1 16 21
M  V30 21 2 21 22
M  V30 22 1 21 23
M  V30 23 1 23 24
M  V30 24 1 24 25
M  V30 25 1 16 26
M  V30 26 2 26 27
M  V30 27 1 26 28
M  V30 28 1 28 29
M  V30 29 1 29 30
M  V30 30 1 14 8
M  V30 31 1 1 31
M  V30 32 1 1 32
M  V30 33 1 1 33
M  V30 34 1 2 34
M  V30 35 1 2 35
M  V30 36 1 6 36
M  V30 37 1 6 37
M  V30 38 1 9 38
M  V30 39 1 10 39
M  V30 40 1 12 40
M  V30 41 1 12 41
M  V30 42 1 13 42
M  V30 43 1 15 43
M  V30 44 1 15 44
M  V30 45 1 17 45
M  V30 46 1 19 46
M  V30 47 1 19 47
M  V30 48 1 19 48
M  V30 49 1 24 49
M  V30 50 1 24 50
M  V30 51 1 25 51
M  V30 52 1 25 52
M  V30 53 1 25 53
M  V30 54 1 29 54
M  V30 55 1 29 55
M  V30 56 1 30 56
M  V30 57 1 30 57
M  V30 58 1 30 58
M  V30 END BOND
M  V30 END CTAB
M  END
>  <Dataset>  (894) 
ChEMBL_Kinases

>  <Ligand_Instance>  (894) 
nan

>  <PDB_ID>  (894) 
nan

>  <Standardized_SMILES>  (894) 
CCOC(=O)COc1ccc(N)cc1CC(NC(C)=O)(C(=O)OCC)C(=O)OCC

>  <Name>  (894) 
nan

>  <Pocket>  (894) 
nan

>  <ATP_Site>  (894) 
nan

>  <Peripheral>  (894) 
nan

>  <Num_H_Atoms_ProtBoundConf>  (894) 
nan

>  <Num_Resolved_Atoms>  (894) 
nan

>  <Num_Not_Resolved_Atoms>  (894) 
nan

$$$$
CHEMBL1493328
     RDKit          3D

  0  0  0  0  0  0  0  0  0  0999 V3000
M  V30 BEGIN CTAB
M  V30 COUNTS 48 51 0 0 0
M  V30 BEGIN ATOM
M  V30 1 C 3.374043 -5.325996 3.145430 0
M  V30 2 C 3.803606 -4.040859 2.568994 0
M  V30 3 C 5.129931 -3.864844 2.231197 0
M  V30 4 C 5.583762 -2.674808 1.686371 0
M  V30 5 C 7.003300 -2.452759 1.308983 0
M  V30 6 C 4.670923 -1.675853 1.493378 0
M  V30 7 C 3.347658 -1.856478 1.832621 0
M  V30 8 O 2.407370 -0.860329 1.646124 0
M  V30 9 C 2.885923 0.348632 1.090609 0
M  V30 10 C 1.708979 1.300826 0.948980 0
M  V30 11 O 1.227640 0.204838 1.457977 0
M  V30 12 N 1.248421 2.612650 0.534454 0
M  V30 13 C -0.107469 2.416148 0.858273 0
M  V30 14 C -0.488678 2.772473 2.146323 0
M  V30 15 C -1.818485 2.606144 2.470282 0
M  V30 16 C -2.626239 2.101863 1.475165 0
M  V30 17 C -2.259578 1.744945 0.195724 0
M  V30 18 C -3.240563 1.222672 -0.744247 0
M  V30 19 N -3.027337 0.837581 -2.012823 0
M  V30 20 N -4.203003 0.424536 -2.511241 0
M  V30 21 C -5.132868 0.563792 -1.528434 0
M  V30 22 C -6.549255 0.194680 -1.745600 0
M  V30 23 C -7.132620 -0.324128 -2.909524 0
M  V30 24 C -8.480616 -0.508134 -2.625684 0
M  V30 25 C -8.639336 -0.097126 -1.323999 0
M  V30 26 O -7.502153 0.305117 -0.840273 0
M  V30 27 O -4.513686 1.048769 -0.476005 0
M  V30 28 C -0.932599 1.912360 -0.124027 0
M  V30 29 C 2.867228 -3.029023 2.376167 0
M  V30 30 H 4.052709 -5.551579 4.013446 0
M  V30 31 H 2.314253 -5.303173 3.460244 0
M  V30 32 H 3.573874 -6.146933 2.404675 0
M  V30 33 H 5.831138 -4.691652 2.401106 0
M  V30 34 H 7.514130 -2.017538 2.181659 0
M  V30 35 H 7.047759 -1.802279 0.394340 0
M  V30 36 H 7.410569 -3.475167 1.050223 0
M  V30 37 H 4.973100 -0.731166 1.072830 0
M  V30 38 H 3.318246 0.235108 0.078649 0
M  V30 39 H 3.607178 0.781626 1.803725 0
M  V30 40 H 2.291378 2.730080 0.298723 0
M  V30 41 H 0.219870 3.159999 2.859585 0
M  V30 42 H -2.217105 2.853472 3.442731 0
M  V30 43 H -3.668036 1.973679 1.731803 0
M  V30 44 H -6.611367 -0.527736 -3.824367 0
M  V30 45 H -9.220578 -0.897565 -3.312861 0
M  V30 46 H -9.576350 -0.093754 -0.742222 0
M  V30 47 H -0.564612 1.656432 -1.105421 0
M  V30 48 H 1.843567 -3.226756 2.660665 0
M  V30 END ATOM
M  V30 BEGIN BOND
M  V30 1 1 1 2
M  V30 2 2 2 3
M  V30 3 1 3 4
M  V30 4 1 4 5
M  V30 5 2 4 6
M  V30 6 1 6 7
M  V30 7 1 7 8
M  V30 8 1 8 9
M  V30 9 1 9 10
M  V30 10 2 10 11
M  V30 11 1 10 12
M  V30 12 1 12 13
M  V30 13 2 13 14
M  V30 14 1 14 15
M  V30 15 2 15 16
M  V30 16 1 16 17
M  V30 17 1 17 18
M  V30 18 2 18 19
M  V30 19 1 19 20
M  V30 20 2 20 21
M  V30 21 1 21 22
M  V30 22 2 22 23
M  V30 23 1 23 24
M  V30 24 2 24 25
M  V30 25 1 25 26
M  V30 26 1 21 27
M  V30 27 2 17 28
M  V30 28 2 7 29
M  V30 29 1 29 2
M  V30 30 1 28 13
M  V30 31 1 27 18
M  V30 32 1 26 22
M  V30 33 1 1 30
M  V30 34 1 1 31
M  V30 35 1 1 32
M  V30 36 1 3 33
M  V30 37 1 5 34
M  V30 38 1 5 35
M  V30 39 1 5 36
M  V30 40 1 6 37
M  V30 41 1 9 38
M  V30 42 1 9 39
M  V30 43 1 12 40
M  V30 44 1 14 41
M  V30 45 1 15 42
M  V30 46 1 16 43
M  V30 47 1 23 44
M  V30 48 1 24 45
M  V30 49 1 25 46
M  V30 50 1 28 47
M  V30 51 1 29 48
M  V30 END BOND
M  V30 END CTAB
M  END
>  <Dataset>  (895) 
ChEMBL_Kinases

>  <Ligand_Instance>  (895) 
nan

>  <PDB_ID>  (895) 
nan

>  <Standardized_SMILES>  (895) 
Cc1cc(C)cc(OCC(=O)Nc2cccc(-c3nnc(-c4ccco4)o3)c2)c1

>  <Name>  (895) 
nan

>  <Pocket>  (895) 
nan

>  <ATP_Site>  (895) 
nan

>  <Peripheral>  (895) 
nan

>  <Num_H_Atoms_ProtBoundConf>  (895) 
nan

>  <Num_Resolved_Atoms>  (895) 
nan

>  <Num_Not_Resolved_Atoms>  (895) 
nan

$$$$
CHEMBL1493477
     RDKit          3D

  0  0  0  0  0  0  0  0  0  0999 V3000
M  V30 BEGIN CTAB
M  V30 COUNTS 42 44 0 0 0
M  V30 BEGIN ATOM
M  V30 1 C 0.564089 -8.419705 1.842098 0
M  V30 2 O 0.187765 -7.133320 1.337825 0
M  V30 3 C 1.156880 -6.275013 0.814154 0
M  V30 4 O 2.133601 -7.038244 0.997569 0
M  V30 5 C 0.864590 -4.956424 0.283098 0
M  V30 6 C -0.440489 -4.497381 0.282817 0
M  V30 7 C -0.575817 -3.235405 -0.247308 0
M  V30 8 C 0.427551 -2.434025 -0.750914 0
M  V30 9 N 0.122529 -1.137807 -1.270374 0
M  V30 10 C 0.174186 -0.092494 -0.306911 0
M  V30 11 O 0.460643 -0.255137 0.911125 0
M  V30 12 C -0.139000 1.288116 -0.806321 0
M  V30 13 C 0.979758 1.636146 -1.791375 0
M  V30 14 N -0.057931 2.259151 0.264448 0
M  V30 15 C 1.053392 2.454935 1.114437 0
M  V30 16 O 2.163599 1.847749 1.116681 0
M  V30 17 C 0.673772 3.539967 2.039348 0
M  V30 18 C 1.400457 4.128542 3.080954 0
M  V30 19 C 0.830478 5.142752 3.820702 0
M  V30 20 C -0.450549 5.550284 3.508912 0
M  V30 21 C -1.176775 4.980803 2.487798 0
M  V30 22 C -0.618627 3.963230 1.737602 0
M  V30 23 C -1.120407 3.169135 0.609404 0
M  V30 24 O -2.248901 3.256490 0.048416 0
M  V30 25 C 1.694114 -2.974936 -0.709004 0
M  V30 26 C 1.938646 -4.236257 -0.195933 0
M  V30 27 H 1.348025 -8.205141 2.624814 0
M  V30 28 H 0.987258 -9.064738 1.059592 0
M  V30 29 H -0.293238 -8.852595 2.393082 0
M  V30 30 H -1.281215 -5.059042 0.657063 0
M  V30 31 H -1.583361 -2.810287 -0.278421 0
M  V30 32 H -0.127208 -0.919466 -2.279988 0
M  V30 33 H -1.116049 1.340536 -1.316034 0
M  V30 34 H 0.654904 2.455644 -2.478348 0
M  V30 35 H 1.828928 2.017534 -1.188679 0
M  V30 36 H 1.331901 0.747155 -2.325798 0
M  V30 37 H 2.387486 3.765671 3.269850 0
M  V30 38 H 1.378216 5.621109 4.641904 0
M  V30 39 H -0.907662 6.358433 4.096647 0
M  V30 40 H -2.190083 5.277591 2.214397 0
M  V30 41 H 2.507979 -2.351397 -1.105939 0
M  V30 42 H 2.941457 -4.644706 -0.171678 0
M  V30 END ATOM
M  V30 BEGIN BOND
M  V30 1 1 1 2
M  V30 2 1 2 3
M  V30 3 2 3 4
M  V30 4 1 3 5
M  V30 5 2 5 6
M  V30 6 1 6 7
M  V30 7 2 7 8
M  V30 8 1 8 9
M  V30 9 1 9 10
M  V30 10 2 10 11
M  V30 11 1 10 12
M  V30 12 1 12 13
M  V30 13 1 12 14
M  V30 14 1 14 15
M  V30 15 2 15 16
M  V30 16 1 15 17
M  V30 17 2 17 18
M  V30 18 1 18 19
M  V30 19 2 19 20
M  V30 20 1 20 21
M  V30 21 2 21 22
M  V30 22 1 22 23
M  V30 23 2 23 24
M  V30 24 1 8 25
M  V30 25 2 25 26
M  V30 26 1 26 5
M  V30 27 1 23 14
M  V30 28 1 22 17
M  V30 29 1 1 27
M  V30 30 1 1 28
M  V30 31 1 1 29
M  V30 32 1 6 30
M  V30 33 1 7 31
M  V30 34 1 9 32
M  V30 35 1 12 33
M  V30 36 1 13 34
M  V30 37 1 13 35
M  V30 38 1 13 36
M  V30 39 1 18 37
M  V30 40 1 19 38
M  V30 41 1 20 39
M  V30 42 1 21 40
M  V30 43 1 25 41
M  V30 44 1 26 42
M  V30 END BOND
M  V30 END CTAB
M  END
>  <Dataset>  (896) 
ChEMBL_Kinases

>  <Ligand_Instance>  (896) 
nan

>  <PDB_ID>  (896) 
nan

>  <Standardized_SMILES>  (896) 
COC(=O)c1ccc(NC(=O)C(C)N2C(=O)c3ccccc3C2=O)cc1

>  <Name>  (896) 
nan

>  <Pocket>  (896) 
nan

>  <ATP_Site>  (896) 
nan

>  <Peripheral>  (896) 
nan

>  <Num_H_Atoms_ProtBoundConf>  (896) 
nan

>  <Num_Resolved_Atoms>  (896) 
nan

>  <Num_Not_Resolved_Atoms>  (896) 
nan

$$$$
CHEMBL1493493
     RDKit          3D

  0  0  0  0  0  0  0  0  0  0999 V3000
M  V30 BEGIN CTAB
M  V30 COUNTS 47 50 0 0 0
M  V30 BEGIN ATOM
M  V30 1 C -0.913039 -5.775316 1.323194 0
M  V30 2 C 0.324388 -5.310311 1.161028 0
M  V30 3 C 1.519948 -4.683709 1.768600 0
M  V30 4 N 1.888450 -3.422554 1.201171 0
M  V30 5 C 0.977618 -2.326217 1.235087 0
M  V30 6 N 1.291846 -1.110108 0.704888 0
M  V30 7 C 0.436224 -0.075223 0.735630 0
M  V30 8 N 0.808038 1.201514 0.160085 0
M  V30 9 C 1.452569 2.102141 1.028033 0
M  V30 10 C 2.265764 3.152655 0.678848 0
M  V30 11 C 2.866060 4.026013 1.545279 0
M  V30 12 C 2.662061 3.870818 2.886972 0
M  V30 13 C 1.855471 2.833976 3.302338 0
M  V30 14 C 1.275461 1.983956 2.389530 0
M  V30 15 C 0.444388 1.311353 -1.203685 0
M  V30 16 C 0.229351 0.164855 -1.935314 0
M  V30 17 C -0.144549 0.217754 -3.284208 0
M  V30 18 C -0.313001 1.421125 -3.935865 0
M  V30 19 C -0.104029 2.584679 -3.225445 0
M  V30 20 C 0.260550 2.480273 -1.907518 0
M  V30 21 N -0.754419 -0.281891 1.313775 0
M  V30 22 C -1.126039 -1.449558 1.852821 0
M  V30 23 N -2.403404 -1.625822 2.457821 0
M  V30 24 C -2.866017 -2.745008 3.007977 0
M  V30 25 C -4.138514 -2.494207 3.476761 0
M  V30 26 N -4.394189 -1.191569 3.178075 0
M  V30 27 C -3.337195 -0.664067 2.557828 0
M  V30 28 N -0.241641 -2.468157 1.804428 0
M  V30 29 H -1.667746 -6.228074 0.693088 0
M  V30 30 H -1.176705 -5.640280 2.366779 0
M  V30 31 H 0.543560 -5.469323 0.091873 0
M  V30 32 H 1.416338 -4.557763 2.886283 0
M  V30 33 H 2.360381 -5.407511 1.666096 0
M  V30 34 H 2.821353 -3.249649 0.745612 0
M  V30 35 H 2.479820 3.327217 -0.364512 0
M  V30 36 H 3.498627 4.837401 1.198277 0
M  V30 37 H 3.109091 4.528045 3.610631 0
M  V30 38 H 1.678579 2.690754 4.369996 0
M  V30 39 H 0.638930 1.170050 2.769394 0
M  V30 40 H 0.330389 -0.854975 -1.532935 0
M  V30 41 H -0.310356 -0.711941 -3.846807 0
M  V30 42 H -0.602186 1.385676 -4.976924 0
M  V30 43 H -0.231034 3.538485 -3.718066 0
M  V30 44 H 0.396952 3.423358 -1.406296 0
M  V30 45 H -2.398394 -3.711245 3.109926 0
M  V30 46 H -4.883239 -3.102748 3.988105 0
M  V30 47 H -3.236424 0.360854 2.192940 0
M  V30 END ATOM
M  V30 BEGIN BOND
M  V30 1 2 1 2
M  V30 2 1 2 3
M  V30 3 1 3 4
M  V30 4 1 4 5
M  V30 5 2 5 6
M  V30 6 1 6 7
M  V30 7 1 7 8
M  V30 8 1 8 9
M  V30 9 2 9 10
M  V30 10 1 10 11
M  V30 11 2 11 12
M  V30 12 1 12 13
M  V30 13 2 13 14
M  V30 14 1 8 15
M  V30 15 2 15 16
M  V30 16 1 16 17
M  V30 17 2 17 18
M  V30 18 1 18 19
M  V30 19 2 19 20
M  V30 20 2 7 21
M  V30 21 1 21 22
M  V30 22 1 22 23
M  V30 23 1 23 24
M  V30 24 2 24 25
M  V30 25 1 25 26
M  V30 26 2 26 27
M  V30 27 2 22 28
M  V30 28 1 28 5
M  V30 29 1 14 9
M  V30 30 1 20 15
M  V30 31 1 27 23
M  V30 32 1 1 29
M  V30 33 1 1 30
M  V30 34 1 2 31
M  V30 35 1 3 32
M  V30 36 1 3 33
M  V30 37 1 4 34
M  V30 38 1 10 35
M  V30 39 1 11 36
M  V30 40 1 12 37
M  V30 41 1 13 38
M  V30 42 1 14 39
M  V30 43 1 16 40
M  V30 44 1 17 41
M  V30 45 1 18 42
M  V30 46 1 19 43
M  V30 47 1 20 44
M  V30 48 1 24 45
M  V30 49 1 25 46
M  V30 50 1 27 47
M  V30 END BOND
M  V30 END CTAB
M  END
>  <Dataset>  (897) 
ChEMBL_Kinases

>  <Ligand_Instance>  (897) 
nan

>  <PDB_ID>  (897) 
nan

>  <Standardized_SMILES>  (897) 
C=CCNc1nc(N(c2ccccc2)c2ccccc2)nc(-n2ccnc2)n1

>  <Name>  (897) 
nan

>  <Pocket>  (897) 
nan

>  <ATP_Site>  (897) 
nan

>  <Peripheral>  (897) 
nan

>  <Num_H_Atoms_ProtBoundConf>  (897) 
nan

>  <Num_Resolved_Atoms>  (897) 
nan

>  <Num_Not_Resolved_Atoms>  (897) 
nan

$$$$
CHEMBL1492785
     RDKit          3D

  0  0  0  0  0  0  0  0  0  0999 V3000
M  V30 BEGIN CTAB
M  V30 COUNTS 58 59 0 0 0
M  V30 BEGIN ATOM
M  V30 1 C 4.026009 -3.004167 1.208072 0
M  V30 2 C 5.472201 -2.937906 1.628176 0
M  V30 3 C 5.704950 -1.751574 2.571762 0
M  V30 4 O 5.351661 -0.533469 1.959690 0
M  V30 5 C 5.926563 -0.094686 0.778717 0
M  V30 6 O 6.793617 -0.766313 0.197867 0
M  V30 7 C 5.319901 1.231075 0.408854 0
M  V30 8 C 3.875722 1.037836 0.007868 0
M  V30 9 C 3.306142 2.406679 -0.354699 0
M  V30 10 N 1.883947 2.252669 -0.719054 0
M  V30 11 C 0.904655 2.355985 0.320266 0
M  V30 12 O 1.122804 2.568273 1.546313 0
M  V30 13 C -0.455435 2.193320 -0.143011 0
M  V30 14 C -1.531623 1.954441 0.575963 0
M  V30 15 S -1.571249 1.766088 2.355410 0
M  V30 16 C -3.315509 1.278739 2.429650 0
M  V30 17 S -3.958106 0.803468 3.845806 0
M  V30 18 N -3.825427 1.429927 1.109646 0
M  V30 19 C -5.263413 1.224621 0.844363 0
M  V30 20 C -5.492066 -0.211441 0.436683 0
M  V30 21 C -5.083877 -1.232309 1.439081 0
M  V30 22 C -5.380757 -2.569860 0.800253 0
M  V30 23 O -6.332128 -3.372709 0.885541 0
M  V30 24 O -4.383927 -2.984640 -0.060570 0
M  V30 25 C -4.406251 -4.181502 -0.781920 0
M  V30 26 C -3.172411 -4.327744 -1.665803 0
M  V30 27 C -1.932326 -4.312101 -0.798204 0
M  V30 28 C -2.904695 1.784722 0.124000 0
M  V30 29 O -3.181629 1.960379 -1.097182 0
M  V30 30 S -0.372665 2.380719 -1.940443 0
M  V30 31 C 1.398672 2.010166 -2.030310 0
M  V30 32 S 2.298321 1.508504 -3.294561 0
M  V30 33 H 3.617581 -4.010138 1.387680 0
M  V30 34 H 3.450404 -2.241075 1.795667 0
M  V30 35 H 3.969119 -2.734046 0.114647 0
M  V30 36 H 6.185577 -2.960714 0.806393 0
M  V30 37 H 5.686690 -3.861161 2.248875 0
M  V30 38 H 5.002756 -1.846431 3.450563 0
M  V30 39 H 6.764649 -1.794820 2.886390 0
M  V30 40 H 5.365321 1.885019 1.275349 0
M  V30 41 H 5.914458 1.596031 -0.443904 0
M  V30 42 H 3.859887 0.388649 -0.869705 0
M  V30 43 H 3.258523 0.686095 0.865459 0
M  V30 44 H 3.437583 3.129549 0.450005 0
M  V30 45 H 3.879437 2.761691 -1.233396 0
M  V30 46 H -5.859575 1.476519 1.731300 0
M  V30 47 H -5.532379 1.842396 -0.018036 0
M  V30 48 H -6.519932 -0.393379 0.096687 0
M  V30 49 H -4.858514 -0.408048 -0.480538 0
M  V30 50 H -4.008786 -1.237690 1.688054 0
M  V30 51 H -5.719943 -1.095925 2.341465 0
M  V30 52 H -4.327793 -5.025659 -0.032527 0
M  V30 53 H -5.295341 -4.305639 -1.417624 0
M  V30 54 H -3.249909 -5.310656 -2.166351 0
M  V30 55 H -3.131497 -3.505321 -2.411539 0
M  V30 56 H -2.166497 -5.011480 0.050718 0
M  V30 57 H -1.050262 -4.664127 -1.373392 0
M  V30 58 H -1.748621 -3.264683 -0.443196 0
M  V30 END ATOM
M  V30 BEGIN BOND
M  V30 1 1 1 2
M  V30 2 1 2 3
M  V30 3 1 3 4
M  V30 4 1 4 5
M  V30 5 2 5 6
M  V30 6 1 5 7
M  V30 7 1 7 8
M  V30 8 1 8 9
M  V30 9 1 9 10
M  V30 10 1 10 11
M  V30 11 2 11 12
M  V30 12 1 11 13
M  V30 13 2 13 14
M  V30 14 1 14 15
M  V30 15 1 15 16
M  V30 16 2 16 17
M  V30 17 1 16 18
M  V30 18 1 18 19
M  V30 19 1 19 20
M  V30 20 1 20 21
M  V30 21 1 21 22
M  V30 22 2 22 23
M  V30 23 1 22 24
M  V30 24 1 24 25
M  V30 25 1 25 26
M  V30 26 1 26 27
M  V30 27 1 18 28
M  V30 28 2 28 29
M  V30 29 1 13 30
M  V30 30 1 30 31
M  V30 31 2 31 32
M  V30 32 1 31 10
M  V30 33 1 28 14
M  V30 34 1 1 33
M  V30 35 1 1 34
M  V30 36 1 1 35
M  V30 37 1 2 36
M  V30 38 1 2 37
M  V30 39 1 3 38
M  V30 40 1 3 39
M  V30 41 1 7 40
M  V30 42 1 7 41
M  V30 43 1 8 42
M  V30 44 1 8 43
M  V30 45 1 9 44
M  V30 46 1 9 45
M  V30 47 1 19 46
M  V30 48 1 19 47
M  V30 49 1 20 48
M  V30 50 1 20 49
M  V30 51 1 21 50
M  V30 52 1 21 51
M  V30 53 1 25 52
M  V30 54 1 25 53
M  V30 55 1 26 54
M  V30 56 1 26 55
M  V30 57 1 27 56
M  V30 58 1 27 57
M  V30 59 1 27 58
M  V30 END BOND
M  V30 END CTAB
M  END
>  <Dataset>  (898) 
ChEMBL_Kinases

>  <Ligand_Instance>  (898) 
nan

>  <PDB_ID>  (898) 
nan

>  <Standardized_SMILES>  (898) 
CCCOC(=O)CCCN1C(=O)/C(=C2\SC(=S)N(CCCC(=O)OCCC)C2=O)SC1=S

>  <Name>  (898) 
nan

>  <Pocket>  (898) 
nan

>  <ATP_Site>  (898) 
nan

>  <Peripheral>  (898) 
nan

>  <Num_H_Atoms_ProtBoundConf>  (898) 
nan

>  <Num_Resolved_Atoms>  (898) 
nan

>  <Num_Not_Resolved_Atoms>  (898) 
nan

$$$$
CHEMBL1497224
     RDKit          3D

  0  0  0  0  0  0  0  0  0  0999 V3000
M  V30 BEGIN CTAB
M  V30 COUNTS 52 54 0 0 0
M  V30 BEGIN ATOM
M  V30 1 C 3.426025 -5.645618 4.615570 0
M  V30 2 C 4.030377 -5.647172 3.208767 0
M  V30 3 C 4.235336 -4.307892 2.689396 0
M  V30 4 N 4.664716 -3.750493 1.671726 0
M  V30 5 N 4.739389 -2.507400 1.458412 0
M  V30 6 C 4.355760 -1.631165 2.323925 0
M  V30 7 N 4.421599 -0.185099 2.123571 0
M  V30 8 C 3.235296 0.296971 1.536729 0
M  V30 9 O 2.275315 -0.492364 1.248435 0
M  V30 10 C 3.100608 1.747225 1.249362 0
M  V30 11 C 1.759572 2.067653 0.622027 0
M  V30 12 C 1.571921 1.343189 -0.660244 0
M  V30 13 O 2.364425 0.544755 -1.254688 0
M  V30 14 N 0.324646 1.594199 -1.291344 0
M  V30 15 C -0.780176 2.438619 -0.880469 0
M  V30 16 C -2.027356 1.636748 -0.632773 0
M  V30 17 N -2.256824 0.583306 -1.526352 0
M  V30 18 C -3.572100 0.167008 -1.801581 0
M  V30 19 C -4.340851 -0.312646 -0.640610 0
M  V30 20 C -5.135853 0.450227 0.190994 0
M  V30 21 C -5.767813 -0.213712 1.224752 0
M  V30 22 C -5.631405 -1.568094 1.440890 0
M  V30 23 Cl -6.454160 -2.364328 2.766577 0
M  V30 24 C -4.842224 -2.330785 0.616939 0
M  V30 25 C -4.202590 -1.686599 -0.421128 0
M  V30 26 C -1.195678 0.056690 -2.285345 0
M  V30 27 C -0.056357 0.985846 -2.551346 0
M  V30 28 S 3.769975 -2.772859 3.724447 0
M  V30 29 H 4.184714 -5.543562 5.405960 0
M  V30 30 H 2.931694 -6.628440 4.747139 0
M  V30 31 H 2.620096 -4.875572 4.665100 0
M  V30 32 H 3.296887 -6.189595 2.566991 0
M  V30 33 H 4.976074 -6.189159 3.236704 0
M  V30 34 H 5.233496 0.380336 2.383843 0
M  V30 35 H 3.276684 2.366164 2.143786 0
M  V30 36 H 3.885260 2.026629 0.514050 0
M  V30 37 H 0.963091 1.869621 1.367183 0
M  V30 38 H 1.757010 3.152564 0.410440 0
M  V30 39 H -0.923624 3.247121 -1.622909 0
M  V30 40 H -0.456772 2.931095 0.062243 0
M  V30 41 H -1.960850 1.240973 0.402106 0
M  V30 42 H -2.918726 2.306375 -0.645655 0
M  V30 43 H -3.540187 -0.577210 -2.623628 0
M  V30 44 H -4.134105 1.037267 -2.243821 0
M  V30 45 H -5.198007 1.497883 -0.033900 0
M  V30 46 H -6.389088 0.366484 1.879336 0
M  V30 47 H -4.734300 -3.390245 0.784322 0
M  V30 48 H -3.584676 -2.347246 -1.047489 0
M  V30 49 H -0.759283 -0.811159 -1.709278 0
M  V30 50 H -1.617908 -0.395132 -3.210646 0
M  V30 51 H -0.369278 1.741557 -3.299212 0
M  V30 52 H 0.814567 0.390497 -2.915615 0
M  V30 END ATOM
M  V30 BEGIN BOND
M  V30 1 1 1 2
M  V30 2 1 2 3
M  V30 3 2 3 4
M  V30 4 1 4 5
M  V30 5 2 5 6
M  V30 6 1 6 7
M  V30 7 1 7 8
M  V30 8 2 8 9
M  V30 9 1 8 10
M  V30 10 1 10 11
M  V30 11 1 11 12
M  V30 12 2 12 13
M  V30 13 1 12 14
M  V30 14 1 14 15
M  V30 15 1 15 16
M  V30 16 1 16 17
M  V30 17 1 17 18
M  V30 18 1 18 19
M  V30 19 2 19 20
M  V30 20 1 20 21
M  V30 21 2 21 22
M  V30 22 1 22 23
M  V30 23 1 22 24
M  V30 24 2 24 25
M  V30 25 1 17 26
M  V30 26 1 26 27
M  V30 27 1 6 28
M  V30 28 1 28 3
M  V30 29 1 27 14
M  V30 30 1 25 19
M  V30 31 1 1 29
M  V30 32 1 1 30
M  V30 33 1 1 31
M  V30 34 1 2 32
M  V30 35 1 2 33
M  V30 36 1 7 34
M  V30 37 1 10 35
M  V30 38 1 10 36
M  V30 39 1 11 37
M  V30 40 1 11 38
M  V30 41 1 15 39
M  V30 42 1 15 40
M  V30 43 1 16 41
M  V30 44 1 16 42
M  V30 45 1 18 43
M  V30 46 1 18 44
M  V30 47 1 20 45
M  V30 48 1 21 46
M  V30 49 1 24 47
M  V30 50 1 25 48
M  V30 51 1 26 49
M  V30 52 1 26 50
M  V30 53 1 27 51
M  V30 54 1 27 52
M  V30 END BOND
M  V30 END CTAB
M  END
>  <Dataset>  (899) 
ChEMBL_Kinases

>  <Ligand_Instance>  (899) 
nan

>  <PDB_ID>  (899) 
nan

>  <Standardized_SMILES>  (899) 
CCc1nnc(NC(=O)CCC(=O)N2CCN(Cc3ccc(Cl)cc3)CC2)s1

>  <Name>  (899) 
nan

>  <Pocket>  (899) 
nan

>  <ATP_Site>  (899) 
nan

>  <Peripheral>  (899) 
nan

>  <Num_H_Atoms_ProtBoundConf>  (899) 
nan

>  <Num_Resolved_Atoms>  (899) 
nan

>  <Num_Not_Resolved_Atoms>  (899) 
nan

$$$$
CHEMBL1497218
     RDKit          3D

  0  0  0  0  0  0  0  0  0  0999 V3000
M  V30 BEGIN CTAB
M  V30 COUNTS 58 62 0 0 0
M  V30 BEGIN ATOM
M  V30 1 C -0.254423 -0.639133 3.903131 0
M  V30 2 C 1.203352 -0.772730 3.715593 0
M  V30 3 C 2.075137 -0.965353 4.766961 0
M  V30 4 C 3.433682 -1.093453 4.629470 0
M  V30 5 C 3.941476 -1.021359 3.339885 0
M  V30 6 C 5.394637 -1.144477 3.050300 0
M  V30 7 C 3.090884 -0.828898 2.267065 0
M  V30 8 N 3.581813 -0.758943 1.018815 0
M  V30 9 C 2.810966 -0.573634 -0.064866 0
M  V30 10 O 3.271449 -0.495051 -1.372695 0
M  V30 11 C 1.432924 -0.438511 0.022152 0
M  V30 12 C 0.485518 -0.228265 -1.125193 0
M  V30 13 C -0.383508 0.927855 -1.007430 0
M  V30 14 N 0.130033 2.195843 -1.072995 0
M  V30 15 N -0.829207 3.080559 -0.951210 0
M  V30 16 N -1.951703 2.420909 -0.808821 0
M  V30 17 N -1.694031 1.107257 -0.841762 0
M  V30 18 C -2.725949 0.148638 -0.722479 0
M  V30 19 C -4.024731 0.763123 -1.295251 0
M  V30 20 C -4.625415 1.520662 -0.139103 0
M  V30 21 C -4.429935 0.523853 0.984952 0
M  V30 22 C -3.139148 -0.191261 0.688261 0
M  V30 23 N 0.010495 -1.418243 -1.726968 0
M  V30 24 C -0.428902 -2.461927 -0.803828 0
M  V30 25 C -1.224443 -3.436579 -1.652946 0
M  V30 26 O -0.353917 -4.035476 -2.580273 0
M  V30 27 C 0.160126 -3.074086 -3.448090 0
M  V30 28 C 0.942948 -2.069220 -2.633517 0
M  V30 29 C 0.941936 -0.514500 1.332946 0
M  V30 30 C 1.729004 -0.704517 2.446907 0
M  V30 31 H -0.834065 -1.516350 3.600484 0
M  V30 32 H -0.675623 0.281814 3.446317 0
M  V30 33 H -0.433092 -0.531557 5.010668 0
M  V30 34 H 1.647424 -1.015800 5.747706 0
M  V30 35 H 4.118597 -1.244767 5.455704 0
M  V30 36 H 5.990882 -1.361346 3.939800 0
M  V30 37 H 5.472052 -1.970393 2.284229 0
M  V30 38 H 5.805466 -0.216905 2.595467 0
M  V30 39 H 4.167034 -0.019386 -1.532912 0
M  V30 40 H 1.266614 0.120473 -1.938957 0
M  V30 41 H -2.624100 -0.780675 -1.296616 0
M  V30 42 H -4.741416 -0.048579 -1.534444 0
M  V30 43 H -3.824816 1.390038 -2.170977 0
M  V30 44 H -4.163383 2.486187 0.069827 0
M  V30 45 H -5.714482 1.602519 -0.286646 0
M  V30 46 H -4.375015 1.151246 1.916687 0
M  V30 47 H -5.290604 -0.158731 1.126552 0
M  V30 48 H -3.291602 -1.301915 0.789538 0
M  V30 49 H -2.430246 0.101116 1.464377 0
M  V30 50 H 0.438019 -3.057271 -0.435223 0
M  V30 51 H -1.037527 -2.051615 0.002541 0
M  V30 52 H -1.692962 -4.243726 -1.069668 0
M  V30 53 H -1.930413 -2.846614 -2.263523 0
M  V30 54 H -0.615676 -2.603246 -4.069445 0
M  V30 55 H 0.895480 -3.588373 -4.107839 0
M  V30 56 H 1.682135 -2.671548 -2.053244 0
M  V30 57 H 1.476659 -1.339320 -3.271495 0
M  V30 58 H -0.111799 -0.426209 1.549346 0
M  V30 END ATOM
M  V30 BEGIN BOND
M  V30 1 1 1 2
M  V30 2 2 2 3
M  V30 3 1 3 4
M  V30 4 2 4 5
M  V30 5 1 5 6
M  V30 6 1 5 7
M  V30 7 2 7 8
M  V30 8 1 8 9
M  V30 9 1 9 10
M  V30 10 2 9 11
M  V30 11 1 11 12
M  V30 12 1 12 13
M  V30 13 2 13 14
M  V30 14 1 14 15
M  V30 15 2 15 16
M  V30 16 1 16 17
M  V30 17 1 17 18
M  V30 18 1 18 19
M  V30 19 1 19 20
M  V30 20 1 20 21
M  V30 21 1 21 22
M  V30 22 1 12 23
M  V30 23 1 23 24
M  V30 24 1 24 25
M  V30 25 1 25 26
M  V30 26 1 26 27
M  V30 27 1 27 28
M  V30 28 1 11 29
M  V30 29 2 29 30
M  V30 30 1 30 2
M  V30 31 1 30 7
M  V30 32 1 17 13
M  V30 33 1 22 18
M  V30 34 1 28 23
M  V30 35 1 1 31
M  V30 36 1 1 32
M  V30 37 1 1 33
M  V30 38 1 3 34
M  V30 39 1 4 35
M  V30 40 1 6 36
M  V30 41 1 6 37
M  V30 42 1 6 38
M  V30 43 1 10 39
M  V30 44 1 12 40
M  V30 45 1 18 41
M  V30 46 1 19 42
M  V30 47 1 19 43
M  V30 48 1 20 44
M  V30 49 1 20 45
M  V30 50 1 21 46
M  V30 51 1 21 47
M  V30 52 1 22 48
M  V30 53 1 22 49
M  V30 54 1 24 50
M  V30 55 1 24 51
M  V30 56 1 25 52
M  V30 57 1 25 53
M  V30 58 1 27 54
M  V30 59 1 27 55
M  V30 60 1 28 56
M  V30 61 1 28 57
M  V30 62 1 29 58
M  V30 END BOND
M  V30 END CTAB
M  END
>  <Dataset>  (900) 
ChEMBL_Kinases

>  <Ligand_Instance>  (900) 
nan

>  <PDB_ID>  (900) 
nan

>  <Standardized_SMILES>  (900) 
Cc1ccc(C)c2nc(O)c(C(c3nnnn3C3CCCC3)N3CCOCC3)cc12

>  <Name>  (900) 
nan

>  <Pocket>  (900) 
nan

>  <ATP_Site>  (900) 
nan

>  <Peripheral>  (900) 
nan

>  <Num_H_Atoms_ProtBoundConf>  (900) 
nan

>  <Num_Resolved_Atoms>  (900) 
nan

>  <Num_Not_Resolved_Atoms>  (900) 
nan

$$$$
CHEMBL1497139
     RDKit          3D

  0  0  0  0  0  0  0  0  0  0999 V3000
M  V30 BEGIN CTAB
M  V30 COUNTS 39 41 0 0 0
M  V30 BEGIN ATOM
M  V30 1 N -2.131866 0.383239 2.801655 0
M  V30 2 C -0.981750 0.251002 2.836148 0
M  V30 3 C 0.428331 0.076779 2.889189 0
M  V30 4 C 1.007375 0.129717 4.200404 0
M  V30 5 N 1.469063 0.181073 5.277361 0
M  V30 6 C 1.289182 -0.129314 1.914260 0
M  V30 7 C 2.722029 -0.294569 2.104909 0
M  V30 8 C 3.502121 -0.491398 1.041146 0
M  V30 9 C 3.025889 -0.556821 -0.337612 0
M  V30 10 C 1.711852 -0.404795 -0.510001 0
M  V30 11 N 0.815858 -0.190729 0.583195 0
M  V30 12 C -0.523556 -0.059693 0.147708 0
M  V30 13 C -0.784085 1.244502 -0.052976 0
M  V30 14 C 0.222864 2.300289 0.170510 0
M  V30 15 C -0.086037 3.553495 0.715584 0
M  V30 16 C 1.092507 4.286775 0.780977 0
M  V30 17 C 2.053440 3.443231 0.273696 0
M  V30 18 O 1.498911 2.294396 -0.069447 0
M  V30 19 C -1.609730 -0.986471 -0.127335 0
M  V30 20 O -2.681826 -0.506266 -0.530689 0
M  V30 21 C -1.571251 -2.423364 0.021852 0
M  V30 22 C -2.689386 -3.149500 -0.307375 0
M  V30 23 C -2.721902 -4.538216 -0.181076 0
M  V30 24 C -1.628380 -5.215743 0.278937 0
M  V30 25 Br -1.597403 -7.122325 0.479655 0
M  V30 26 C -0.468464 -4.523985 0.626511 0
M  V30 27 C -0.504248 -3.165846 0.478550 0
M  V30 28 H 3.134196 -0.255293 3.107503 0
M  V30 29 H 4.584321 -0.613118 1.212778 0
M  V30 30 H 3.719708 -0.719383 -1.145382 0
M  V30 31 H 1.425076 -0.464696 -1.565232 0
M  V30 32 H -1.762078 1.619099 -0.397408 0
M  V30 33 H -1.082215 3.838144 1.013001 0
M  V30 34 H 1.053747 5.287193 1.178522 0
M  V30 35 H 3.073592 3.790928 0.218425 0
M  V30 36 H -3.619028 -2.713196 -0.685928 0
M  V30 37 H -3.612558 -5.114093 -0.443032 0
M  V30 38 H 0.416250 -5.044267 0.995460 0
M  V30 39 H 0.396417 -2.637586 0.751673 0
M  V30 END ATOM
M  V30 BEGIN BOND
M  V30 1 3 1 2
M  V30 2 1 2 3
M  V30 3 1 3 4
M  V30 4 3 4 5
M  V30 5 2 3 6 CFG=2
M  V30 6 1 6 7
M  V30 7 2 7 8
M  V30 8 1 8 9
M  V30 9 2 9 10
M  V30 10 1 10 11
M  V30 11 1 11 12
M  V30 12 2 12 13
M  V30 13 1 13 14
M  V30 14 2 14 15
M  V30 15 1 15 16
M  V30 16 2 16 17
M  V30 17 1 17 18
M  V30 18 1 12 19
M  V30 19 2 19 20
M  V30 20 1 19 21
M  V30 21 2 21 22
M  V30 22 1 22 23
M  V30 23 2 23 24
M  V30 24 1 24 25
M  V30 25 1 24 26
M  V30 26 2 26 27
M  V30 27 1 11 6
M  V30 28 1 18 14
M  V30 29 1 27 21
M  V30 30 1 7 28
M  V30 31 1 8 29
M  V30 32 1 9 30
M  V30 33 1 10 31
M  V30 34 1 13 32
M  V30 35 1 15 33
M  V30 36 1 16 34
M  V30 37 1 17 35
M  V30 38 1 22 36
M  V30 39 1 23 37
M  V30 40 1 26 38
M  V30 41 1 27 39
M  V30 END BOND
M  V30 END CTAB
M  END
>  <Dataset>  (901) 
ChEMBL_Kinases

>  <Ligand_Instance>  (901) 
nan

>  <PDB_ID>  (901) 
nan

>  <Standardized_SMILES>  (901) 
N#CC(C#N)=C1C=CC=CN1/C(=C\c1ccco1)C(=O)c1ccc(Br)cc1

>  <Name>  (901) 
nan

>  <Pocket>  (901) 
nan

>  <ATP_Site>  (901) 
nan

>  <Peripheral>  (901) 
nan

>  <Num_H_Atoms_ProtBoundConf>  (901) 
nan

>  <Num_Resolved_Atoms>  (901) 
nan

>  <Num_Not_Resolved_Atoms>  (901) 
nan

$$$$
CHEMBL1497129
     RDKit          3D

  0  0  0  0  0  0  0  0  0  0999 V3000
M  V30 BEGIN CTAB
M  V30 COUNTS 53 56 0 0 0
M  V30 BEGIN ATOM
M  V30 1 C 5.597174 -3.381844 2.107720 0
M  V30 2 C 4.543974 -4.354777 2.520323 0
M  V30 3 O 3.402971 -4.380439 1.696681 0
M  V30 4 C 2.581874 -3.286557 1.491447 0
M  V30 5 C 2.821096 -2.072570 2.091274 0
M  V30 6 C 1.968624 -1.036007 1.844327 0
M  V30 7 C 0.835512 -1.066445 1.019764 0
M  V30 8 C 0.140537 0.182454 0.808995 0
M  V30 9 N 0.788194 1.202873 1.226870 0
M  V30 10 N 0.459802 2.579824 1.193757 0
M  V30 11 C -0.358900 3.166932 0.338006 0
M  V30 12 C -0.605197 4.640246 0.419887 0
M  V30 13 C -0.627323 5.439276 1.476726 0
M  V30 14 C -0.869861 6.776611 1.352202 0
M  V30 15 C -1.087657 7.210474 0.030221 0
M  V30 16 S -0.920976 5.619119 -0.944861 0
M  V30 17 N -1.144394 2.572775 -0.721958 0
M  V30 18 C -1.725166 1.254013 -0.513305 0
M  V30 19 C -2.998358 1.119922 -1.069566 0
M  V30 20 C -3.690762 -0.049705 -0.834806 0
M  V30 21 C -3.120382 -1.065670 -0.056425 0
M  V30 22 O -3.814074 -2.242689 0.184324 0
M  V30 23 C -5.102602 -2.353114 -0.390204 0
M  V30 24 C -1.866010 -0.966222 0.506683 0
M  V30 25 C -1.199151 0.222092 0.242922 0
M  V30 26 C 0.692124 -2.311409 0.474568 0
M  V30 27 C 1.488149 -3.409168 0.661043 0
M  V30 28 O 1.265356 -4.624208 0.073910 0
M  V30 29 C 0.200734 -4.903276 -0.777259 0
M  V30 30 C -1.130878 -4.727406 -0.127555 0
M  V30 31 H 6.504196 -3.948901 1.801617 0
M  V30 32 H 5.309290 -2.805226 1.201976 0
M  V30 33 H 5.949750 -2.710804 2.942228 0
M  V30 34 H 4.223933 -4.062571 3.563814 0
M  V30 35 H 4.999539 -5.357673 2.621308 0
M  V30 36 H 3.678042 -1.980245 2.742374 0
M  V30 37 H 2.250807 -0.113037 2.373278 0
M  V30 38 H -0.443482 4.994957 2.469371 0
M  V30 39 H -0.905523 7.496490 2.159575 0
M  V30 40 H -1.305521 8.307993 -0.245489 0
M  V30 41 H -1.372716 3.001279 -1.637266 0
M  V30 42 H -3.321427 1.964642 -1.645176 0
M  V30 43 H -4.674526 -0.141544 -1.272006 0
M  V30 44 H -5.750517 -1.542897 0.052297 0
M  V30 45 H -5.069287 -2.137827 -1.481998 0
M  V30 46 H -5.581592 -3.326625 -0.169965 0
M  V30 47 H -1.442519 -1.701401 1.150254 0
M  V30 48 H -0.094546 -2.461805 -0.237316 0
M  V30 49 H 0.284507 -5.926881 -1.201722 0
M  V30 50 H 0.318288 -4.222215 -1.670232 0
M  V30 51 H -1.037055 -4.327880 0.900512 0
M  V30 52 H -1.637843 -5.724841 -0.001063 0
M  V30 53 H -1.820162 -4.042074 -0.674479 0
M  V30 END ATOM
M  V30 BEGIN BOND
M  V30 1 1 1 2
M  V30 2 1 2 3
M  V30 3 1 3 4
M  V30 4 2 4 5
M  V30 5 1 5 6
M  V30 6 2 6 7
M  V30 7 1 7 8
M  V30 8 2 8 9
M  V30 9 1 9 10
M  V30 10 2 10 11
M  V30 11 1 11 12
M  V30 12 2 12 13
M  V30 13 1 13 14
M  V30 14 2 14 15
M  V30 15 1 15 16
M  V30 16 1 11 17
M  V30 17 1 17 18
M  V30 18 2 18 19
M  V30 19 1 19 20
M  V30 20 2 20 21
M  V30 21 1 21 22
M  V30 22 1 22 23
M  V30 23 1 21 24
M  V30 24 2 24 25
M  V30 25 1 7 26
M  V30 26 2 26 27
M  V30 27 1 27 28
M  V30 28 1 28 29
M  V30 29 1 29 30
M  V30 30 1 27 4
M  V30 31 1 25 8
M  V30 32 1 16 12
M  V30 33 1 25 18
M  V30 34 1 1 31
M  V30 35 1 1 32
M  V30 36 1 1 33
M  V30 37 1 2 34
M  V30 38 1 2 35
M  V30 39 1 5 36
M  V30 40 1 6 37
M  V30 41 1 13 38
M  V30 42 1 14 39
M  V30 43 1 15 40
M  V30 44 1 17 41
M  V30 45 1 19 42
M  V30 46 1 20 43
M  V30 47 1 23 44
M  V30 48 1 23 45
M  V30 49 1 23 46
M  V30 50 1 24 47
M  V30 51 1 26 48
M  V30 52 1 29 49
M  V30 53 1 29 50
M  V30 54 1 30 51
M  V30 55 1 30 52
M  V30 56 1 30 53
M  V30 END BOND
M  V30 END CTAB
M  END
>  <Dataset>  (902) 
ChEMBL_Kinases

>  <Ligand_Instance>  (902) 
nan

>  <PDB_ID>  (902) 
nan

>  <Standardized_SMILES>  (902) 
CCOc1ccc(C2=NN=C(c3cccs3)Nc3ccc(OC)cc32)cc1OCC

>  <Name>  (902) 
nan

>  <Pocket>  (902) 
nan

>  <ATP_Site>  (902) 
nan

>  <Peripheral>  (902) 
nan

>  <Num_H_Atoms_ProtBoundConf>  (902) 
nan

>  <Num_Resolved_Atoms>  (902) 
nan

>  <Num_Not_Resolved_Atoms>  (902) 
nan

$$$$
CHEMBL1496947
     RDKit          3D

  0  0  0  0  0  0  0  0  0  0999 V3000
M  V30 BEGIN CTAB
M  V30 COUNTS 44 46 0 0 0
M  V30 BEGIN ATOM
M  V30 1 C 0.866691 -5.213791 2.019302 0
M  V30 2 C 0.776826 -3.678709 2.076915 0
M  V30 3 C -0.648349 -3.324832 2.228311 0
M  V30 4 S 1.652805 -3.051284 0.670928 0
M  V30 5 C 1.668762 -1.288232 0.485380 0
M  V30 6 N 2.640991 -0.631674 1.183760 0
M  V30 7 C 2.525876 0.677127 0.897669 0
M  V30 8 C 1.458713 0.737282 0.015668 0
M  V30 9 C 1.194889 2.041801 -0.407045 0
M  V30 10 O 0.278998 2.283296 -1.200100 0
M  V30 11 N 1.889057 3.118834 -0.007752 0
M  V30 12 C 1.586633 4.459950 -0.467906 0
M  V30 13 C 2.909507 2.963237 0.852875 0
M  V30 14 O 3.581264 3.947952 1.248235 0
M  V30 15 N 3.227059 1.743483 1.304222 0
M  V30 16 C 4.317251 1.515069 2.233225 0
M  V30 17 N 0.910614 -0.466534 -0.255862 0
M  V30 18 C -0.176343 -0.715624 -1.129810 0
M  V30 19 C -1.516999 -0.748581 -0.566999 0
M  V30 20 C -2.132334 -2.002007 -0.432425 0
M  V30 21 C -3.379559 -2.245323 0.067898 0
M  V30 22 C -4.146213 -1.199710 0.493325 0
M  V30 23 Cl -5.752731 -1.321918 1.154663 0
M  V30 24 C -3.605385 0.063265 0.391290 0
M  V30 25 C -2.343788 0.250775 -0.120535 0
M  V30 26 H 0.141006 -5.644513 1.312202 0
M  V30 27 H 1.880063 -5.512069 1.636420 0
M  V30 28 H 0.807624 -5.629686 3.039686 0
M  V30 29 H 1.309204 -3.397442 3.039256 0
M  V30 30 H -0.879311 -2.252240 2.154923 0
M  V30 31 H -1.356912 -3.894840 1.608181 0
M  V30 32 H -0.937127 -3.595533 3.290306 0
M  V30 33 H 2.479409 5.094588 -0.390404 0
M  V30 34 H 0.743634 4.837745 0.174828 0
M  V30 35 H 1.183433 4.415310 -1.485141 0
M  V30 36 H 3.946539 1.227162 3.238645 0
M  V30 37 H 4.839809 2.494230 2.364427 0
M  V30 38 H 5.079226 0.805736 1.847625 0
M  V30 39 H 0.031579 -1.669535 -1.676747 0
M  V30 40 H -0.150434 0.073861 -1.935834 0
M  V30 41 H -1.586688 -2.905908 -0.747950 0
M  V30 42 H -3.790261 -3.233397 0.140747 0
M  V30 43 H -4.165178 0.951518 0.711730 0
M  V30 44 H -1.961966 1.250340 -0.180545 0
M  V30 END ATOM
M  V30 BEGIN BOND
M  V30 1 1 1 2
M  V30 2 1 2 3
M  V30 3 1 2 4
M  V30 4 1 4 5
M  V30 5 2 5 6
M  V30 6 1 6 7
M  V30 7 2 7 8
M  V30 8 1 8 9
M  V30 9 2 9 10
M  V30 10 1 9 11
M  V30 11 1 11 12
M  V30 12 1 11 13
M  V30 13 2 13 14
M  V30 14 1 13 15
M  V30 15 1 15 16
M  V30 16 1 8 17
M  V30 17 1 17 18
M  V30 18 1 18 19
M  V30 19 2 19 20
M  V30 20 1 20 21
M  V30 21 2 21 22
M  V30 22 1 22 23
M  V30 23 1 22 24
M  V30 24 2 24 25
M  V30 25 1 17 5
M  V30 26 1 25 19
M  V30 27 1 15 7
M  V30 28 1 1 26
M  V30 29 1 1 27
M  V30 30 1 1 28
M  V30 31 1 2 29
M  V30 32 1 3 30
M  V30 33 1 3 31
M  V30 34 1 3 32
M  V30 35 1 12 33
M  V30 36 1 12 34
M  V30 37 1 12 35
M  V30 38 1 16 36
M  V30 39 1 16 37
M  V30 40 1 16 38
M  V30 41 1 18 39
M  V30 42 1 18 40
M  V30 43 1 20 41
M  V30 44 1 21 42
M  V30 45 1 24 43
M  V30 46 1 25 44
M  V30 END BOND
M  V30 END CTAB
M  END
>  <Dataset>  (903) 
ChEMBL_Kinases

>  <Ligand_Instance>  (903) 
nan

>  <PDB_ID>  (903) 
nan

>  <Standardized_SMILES>  (903) 
CC(C)Sc1nc2c(c(=O)n(C)c(=O)n2C)n1Cc1ccc(Cl)cc1

>  <Name>  (903) 
nan

>  <Pocket>  (903) 
nan

>  <ATP_Site>  (903) 
nan

>  <Peripheral>  (903) 
nan

>  <Num_H_Atoms_ProtBoundConf>  (903) 
nan

>  <Num_Resolved_Atoms>  (903) 
nan

>  <Num_Not_Resolved_Atoms>  (903) 
nan

$$$$
CHEMBL1496925
     RDKit          3D

  0  0  0  0  0  0  0  0  0  0999 V3000
M  V30 BEGIN CTAB
M  V30 COUNTS 21 22 0 0 0
M  V30 BEGIN ATOM
M  V30 1 C 2.617465 0.164209 4.876675 0
M  V30 2 O 2.184100 0.040594 3.539242 0
M  V30 3 C 0.887667 0.289542 3.136176 0
M  V30 4 O -0.046415 0.654880 3.927104 0
M  V30 5 C 0.634611 0.104998 1.701910 0
M  V30 6 C -0.510210 0.252273 0.924149 0
M  V30 7 C -0.434140 0.000713 -0.429560 0
M  V30 8 C 0.746545 -0.377421 -0.943286 0
M  V30 9 S 1.913695 -0.425282 0.444481 0
M  V30 10 C 0.899164 -0.650185 -2.320081 0
M  V30 11 S -0.529635 0.221222 -2.987086 0 CHG=1 VAL=3
M  V30 12 O -0.088159 1.838348 -3.108094 0 CHG=-1 VAL=1
M  V30 13 C -1.480130 0.068546 -1.491951 0
M  V30 14 H 2.142523 1.030009 5.388725 0
M  V30 15 H 3.704423 0.290698 4.847130 0
M  V30 16 H 2.385114 -0.724629 5.494284 0
M  V30 17 H -1.353837 0.563123 1.526835 0
M  V30 18 H 1.797582 -0.282914 -2.830354 0
M  V30 19 H 0.774882 -1.719032 -2.585667 0
M  V30 20 H -1.987089 -0.931401 -1.558511 0
M  V30 21 H -2.210316 0.876873 -1.383566 0
M  V30 END ATOM
M  V30 BEGIN BOND
M  V30 1 1 1 2
M  V30 2 1 2 3
M  V30 3 2 3 4
M  V30 4 1 3 5
M  V30 5 2 5 6
M  V30 6 1 6 7
M  V30 7 2 7 8
M  V30 8 1 8 9
M  V30 9 1 8 10
M  V30 10 1 10 11
M  V30 11 1 11 12
M  V30 12 1 11 13
M  V30 13 1 9 5
M  V30 14 1 13 7
M  V30 15 1 1 14
M  V30 16 1 1 15
M  V30 17 1 1 16
M  V30 18 1 6 17
M  V30 19 1 10 18
M  V30 20 1 10 19
M  V30 21 1 13 20
M  V30 22 1 13 21
M  V30 END BOND
M  V30 END CTAB
M  END
>  <Dataset>  (904) 
ChEMBL_Kinases

>  <Ligand_Instance>  (904) 
nan

>  <PDB_ID>  (904) 
nan

>  <Standardized_SMILES>  (904) 
COC(=O)c1cc2c(s1)C[S+]([O-])C2

>  <Name>  (904) 
nan

>  <Pocket>  (904) 
nan

>  <ATP_Site>  (904) 
nan

>  <Peripheral>  (904) 
nan

>  <Num_H_Atoms_ProtBoundConf>  (904) 
nan

>  <Num_Resolved_Atoms>  (904) 
nan

>  <Num_Not_Resolved_Atoms>  (904) 
nan

$$$$
CHEMBL1496811
     RDKit          3D

  0  0  0  0  0  0  0  0  0  0999 V3000
M  V30 BEGIN CTAB
M  V30 COUNTS 61 64 0 0 0
M  V30 BEGIN ATOM
M  V30 1 C 3.765310 -4.008147 4.384844 0
M  V30 2 C 4.078220 -2.699252 3.739908 0
M  V30 3 O 2.946993 -2.067577 3.174629 0
M  V30 4 C 3.084340 -0.859159 2.549684 0
M  V30 5 O 4.327957 -0.658710 2.688178 0
M  V30 6 C 2.012583 -0.088202 1.921010 0
M  V30 7 N 0.709752 -0.657086 1.968811 0
M  V30 8 C 0.164204 -1.477926 1.046936 0
M  V30 9 C 0.663682 -1.958123 -0.250655 0
M  V30 10 N 0.163578 -1.420994 -1.432692 0
M  V30 11 C 0.166042 -0.087249 -1.777095 0
M  V30 12 C -0.533631 0.902051 -0.956280 0
M  V30 13 C -1.924004 0.979343 -1.131352 0
M  V30 14 C -2.730778 1.887818 -0.447336 0
M  V30 15 C -2.158649 2.766102 0.452628 0
M  V30 16 C -0.816875 2.733901 0.659559 0
M  V30 17 C -0.068153 1.819591 -0.040635 0
M  V30 18 C -0.183784 -2.400202 -2.431437 0
M  V30 19 C -0.634521 -1.734799 -3.661549 0
M  V30 20 C -1.906927 -1.340845 -4.028978 0
M  V30 21 C -2.169567 -0.732038 -5.235628 0
M  V30 22 C -1.181235 -0.473343 -6.160793 0
M  V30 23 C 0.096355 -0.846134 -5.840657 0
M  V30 24 C 0.341072 -1.453752 -4.629805 0
M  V30 25 N -1.076689 -1.823927 1.496237 0
M  V30 26 C -1.266357 -1.210128 2.677748 0
M  V30 27 C -0.130343 -0.457319 2.995518 0
M  V30 28 C -0.177934 0.234230 4.188683 0
M  V30 29 O 0.844219 0.912098 4.475404 0
M  V30 30 N -1.280693 0.168239 4.989458 0
M  V30 31 C -2.351625 -0.568554 4.644722 0
M  V30 32 O -3.378449 -0.639570 5.374479 0
M  V30 33 N -2.351610 -1.260104 3.490813 0
M  V30 34 C -3.509347 -2.054654 3.121357 0
M  V30 35 H 3.410038 -3.801360 5.418214 0
M  V30 36 H 4.657006 -4.638377 4.464530 0
M  V30 37 H 2.929151 -4.487509 3.842315 0
M  V30 38 H 4.460167 -2.007913 4.532427 0
M  V30 39 H 4.915229 -2.777843 3.007026 0
M  V30 40 H 1.979412 0.946703 2.249965 0
M  V30 41 H 2.317549 -0.048029 0.829944 0
M  V30 42 H 1.779989 -1.897875 -0.278672 0
M  V30 43 H 0.454826 -3.071729 -0.253400 0
M  V30 44 H -0.276207 0.027081 -2.813425 0
M  V30 45 H 1.246097 0.220612 -1.961359 0
M  V30 46 H -2.522125 0.367627 -1.792310 0
M  V30 47 H -3.787267 1.972640 -0.556628 0
M  V30 48 H -2.733241 3.481275 1.002278 0
M  V30 49 H -0.278772 3.388564 1.350004 0
M  V30 50 H 1.002309 1.790605 0.091689 0
M  V30 51 H -0.990199 -3.091354 -2.075917 0
M  V30 52 H 0.656596 -3.067883 -2.688067 0
M  V30 53 H -2.665934 -1.564115 -3.265833 0
M  V30 54 H -3.201353 -0.467869 -5.415099 0
M  V30 55 H -1.474036 0.000038 -7.065877 0
M  V30 56 H 0.899548 -0.662390 -6.535692 0
M  V30 57 H 1.373350 -1.725097 -4.435245 0
M  V30 58 H -1.285728 0.700550 5.881791 0
M  V30 59 H -3.215857 -2.830490 2.360758 0
M  V30 60 H -4.177529 -1.363496 2.543578 0
M  V30 61 H -4.033970 -2.478561 3.982722 0
M  V30 END ATOM
M  V30 BEGIN BOND
M  V30 1 1 1 2
M  V30 2 1 2 3
M  V30 3 1 3 4
M  V30 4 2 4 5
M  V30 5 1 4 6
M  V30 6 1 6 7
M  V30 7 1 7 8
M  V30 8 1 8 9
M  V30 9 1 9 10
M  V30 10 1 10 11
M  V30 11 1 11 12
M  V30 12 2 12 13
M  V30 13 1 13 14
M  V30 14 2 14 15
M  V30 15 1 15 16
M  V30 16 2 16 17
M  V30 17 1 10 18
M  V30 18 1 18 19
M  V30 19 2 19 20
M  V30 20 1 20 21
M  V30 21 2 21 22
M  V30 22 1 22 23
M  V30 23 2 23 24
M  V30 24 2 8 25
M  V30 25 1 25 26
M  V30 26 2 26 27
M  V30 27 1 27 28
M  V30 28 2 28 29
M  V30 29 1 28 30
M  V30 30 1 30 31
M  V30 31 2 31 32
M  V30 32 1 31 33
M  V30 33 1 33 34
M  V30 34 1 27 7
M  V30 35 1 17 12
M  V30 36 1 24 19
M  V30 37 1 33 26
M  V30 38 1 1 35
M  V30 39 1 1 36
M  V30 40 1 1 37
M  V30 41 1 2 38
M  V30 42 1 2 39
M  V30 43 1 6 40
M  V30 44 1 6 41
M  V30 45 1 9 42
M  V30 46 1 9 43
M  V30 47 1 11 44
M  V30 48 1 11 45
M  V30 49 1 13 46
M  V30 50 1 14 47
M  V30 51 1 15 48
M  V30 52 1 16 49
M  V30 53 1 17 50
M  V30 54 1 18 51
M  V30 55 1 18 52
M  V30 56 1 20 53
M  V30 57 1 21 54
M  V30 58 1 22 55
M  V30 59 1 23 56
M  V30 60 1 24 57
M  V30 61 1 30 58
M  V30 62 1 34 59
M  V30 63 1 34 60
M  V30 64 1 34 61
M  V30 END BOND
M  V30 END CTAB
M  END
>  <Dataset>  (905) 
ChEMBL_Kinases

>  <Ligand_Instance>  (905) 
nan

>  <PDB_ID>  (905) 
nan

>  <Standardized_SMILES>  (905) 
CCOC(=O)Cn1c(CN(Cc2ccccc2)Cc2ccccc2)nc2c1c(=O)[nH]c(=O)n2C

>  <Name>  (905) 
nan

>  <Pocket>  (905) 
nan

>  <ATP_Site>  (905) 
nan

>  <Peripheral>  (905) 
nan

>  <Num_H_Atoms_ProtBoundConf>  (905) 
nan

>  <Num_Resolved_Atoms>  (905) 
nan

>  <Num_Not_Resolved_Atoms>  (905) 
nan

$$$$
CHEMBL1496732
     RDKit          3D

  0  0  0  0  0  0  0  0  0  0999 V3000
M  V30 BEGIN CTAB
M  V30 COUNTS 34 35 0 0 0
M  V30 BEGIN ATOM
M  V30 1 C 0.407808 -2.163572 4.841880 0
M  V30 2 C 0.929846 -3.224500 3.883131 0
M  V30 3 C 1.038120 -2.692294 2.502425 0
M  V30 4 C -0.091845 -2.849451 1.726822 0
M  V30 5 C -0.150637 -2.408631 0.423234 0
M  V30 6 C 0.916474 -1.783394 -0.184244 0
M  V30 7 C 1.132714 -1.208697 -1.513570 0
M  V30 8 N 0.911392 0.193019 -1.645325 0
M  V30 9 C -0.180459 1.091769 -1.548362 0
M  V30 10 C -0.097785 2.481248 -1.715304 0
M  V30 11 C -1.239487 3.234615 -1.603198 0
M  V30 12 C -2.482132 2.709637 -1.333253 0
M  V30 13 O -3.507894 3.639371 -1.260296 0
M  V30 14 C -2.576965 1.344485 -1.166975 0
M  V30 15 C -1.433748 0.584804 -1.278732 0
M  V30 16 C 2.055142 -1.633422 0.620089 0
M  V30 17 C 2.129853 -2.071394 1.932049 0
M  V30 18 H -0.718132 -2.225255 4.804329 0
M  V30 19 H 0.707098 -2.367481 5.884190 0
M  V30 20 H 0.724368 -1.153519 4.542880 0
M  V30 21 H 1.925452 -3.521335 4.241867 0
M  V30 22 H 0.287807 -4.129147 3.899850 0
M  V30 23 H -1.009773 -3.318124 2.056166 0
M  V30 24 H -0.990881 -2.505651 -0.241834 0
M  V30 25 H 2.133047 -1.469893 -1.904234 0
M  V30 26 H 0.414985 -1.691257 -2.258402 0
M  V30 27 H 1.795835 0.748143 -1.880413 0
M  V30 28 H 0.878480 2.895364 -1.927553 0
M  V30 29 H -1.062030 4.293865 -1.750015 0
M  V30 30 H -3.584043 4.264599 -0.486287 0
M  V30 31 H -3.573759 0.984472 -0.957129 0
M  V30 32 H -1.671568 -0.457204 -1.128363 0
M  V30 33 H 3.003362 -1.162255 0.316179 0
M  V30 34 H 2.977750 -1.972399 2.566644 0
M  V30 END ATOM
M  V30 BEGIN BOND
M  V30 1 1 1 2
M  V30 2 1 2 3
M  V30 3 2 3 4
M  V30 4 1 4 5
M  V30 5 2 5 6
M  V30 6 1 6 7
M  V30 7 1 7 8
M  V30 8 1 8 9
M  V30 9 2 9 10
M  V30 10 1 10 11
M  V30 11 2 11 12
M  V30 12 1 12 13
M  V30 13 1 12 14
M  V30 14 2 14 15
M  V30 15 1 6 16
M  V30 16 2 16 17
M  V30 17 1 17 3
M  V30 18 1 15 9
M  V30 19 1 1 18
M  V30 20 1 1 19
M  V30 21 1 1 20
M  V30 22 1 2 21
M  V30 23 1 2 22
M  V30 24 1 4 23
M  V30 25 1 5 24
M  V30 26 1 7 25
M  V30 27 1 7 26
M  V30 28 1 8 27
M  V30 29 1 10 28
M  V30 30 1 11 29
M  V30 31 1 13 30
M  V30 32 1 14 31
M  V30 33 1 15 32
M  V30 34 1 16 33
M  V30 35 1 17 34
M  V30 END BOND
M  V30 END CTAB
M  END
>  <Dataset>  (906) 
ChEMBL_Kinases

>  <Ligand_Instance>  (906) 
nan

>  <PDB_ID>  (906) 
nan

>  <Standardized_SMILES>  (906) 
CCc1ccc(CNc2ccc(O)cc2)cc1

>  <Name>  (906) 
nan

>  <Pocket>  (906) 
nan

>  <ATP_Site>  (906) 
nan

>  <Peripheral>  (906) 
nan

>  <Num_H_Atoms_ProtBoundConf>  (906) 
nan

>  <Num_Resolved_Atoms>  (906) 
nan

>  <Num_Not_Resolved_Atoms>  (906) 
nan

$$$$
CHEMBL1496721
     RDKit          3D

  0  0  0  0  0  0  0  0  0  0999 V3000
M  V30 BEGIN CTAB
M  V30 COUNTS 23 24 0 0 0
M  V30 BEGIN ATOM
M  V30 1 O 0.374950 -2.094667 -1.210457 0
M  V30 2 C 0.910965 -1.876673 -0.072948 0
M  V30 3 O 1.056566 -3.001086 0.707302 0
M  V30 4 C 1.362312 -0.586459 0.444296 0 CFG=2
M  V30 5 C 0.681584 -0.143025 1.724622 0 CFG=2
M  V30 6 C -0.638287 -0.799732 1.903785 0
M  V30 7 O -1.266829 -1.626636 1.208150 0
M  V30 8 O -1.338818 -0.454479 3.052647 0
M  V30 9 C 0.434741 1.330664 1.542651 0 CFG=2
M  V30 10 Cl 0.460603 2.302928 2.956737 0
M  V30 11 C -0.765019 1.475683 0.669790 0
M  V30 12 Cl -2.255656 2.282389 1.128210 0
M  V30 13 C -0.409104 0.861234 -0.478479 0
M  V30 14 Cl -1.632189 0.526396 -1.712836 0
M  V30 15 C 1.066687 0.572640 -0.455712 0 CFG=2
M  V30 16 Cl 1.837606 0.575111 -1.991524 0
M  V30 17 C 1.503586 1.693137 0.499969 0
M  V30 18 Cl 3.130494 1.425747 1.123572 0
M  V30 19 Cl 1.251753 3.290401 -0.185115 0
M  V30 20 H 1.300762 -3.935713 0.359242 0
M  V30 21 H 2.466766 -0.570697 0.660287 0
M  V30 22 H 1.330171 -0.324866 2.611735 0
M  V30 23 H -2.348999 -0.445458 3.123189 0
M  V30 END ATOM
M  V30 BEGIN BOND
M  V30 1 2 1 2
M  V30 2 1 2 3
M  V30 3 1 2 4
M  V30 4 1 4 5
M  V30 5 1 5 6
M  V30 6 2 6 7
M  V30 7 1 6 8
M  V30 8 1 5 9
M  V30 9 1 9 10 CFG=1
M  V30 10 1 9 11
M  V30 11 1 11 12
M  V30 12 2 11 13
M  V30 13 1 13 14
M  V30 14 1 13 15
M  V30 15 1 15 16 CFG=3
M  V30 16 1 15 17
M  V30 17 1 17 18
M  V30 18 1 17 19
M  V30 19 1 15 4
M  V30 20 1 17 9
M  V30 21 1 3 20
M  V30 22 1 4 21 CFG=1
M  V30 23 1 5 22 CFG=1
M  V30 24 1 8 23
M  V30 END BOND
M  V30 END CTAB
M  END
>  <Dataset>  (907) 
ChEMBL_Kinases

>  <Ligand_Instance>  (907) 
nan

>  <PDB_ID>  (907) 
nan

>  <Standardized_SMILES>  (907) 
O=C(O)[C@@H]1[C@H](C(=O)O)[C@]2(Cl)C(Cl)=C(Cl)[C@@]1(Cl)C2(Cl)Cl

>  <Name>  (907) 
nan

>  <Pocket>  (907) 
nan

>  <ATP_Site>  (907) 
nan

>  <Peripheral>  (907) 
nan

>  <Num_H_Atoms_ProtBoundConf>  (907) 
nan

>  <Num_Resolved_Atoms>  (907) 
nan

>  <Num_Not_Resolved_Atoms>  (907) 
nan

$$$$
CHEMBL1496621
     RDKit          3D

  0  0  0  0  0  0  0  0  0  0999 V3000
M  V30 BEGIN CTAB
M  V30 COUNTS 39 42 0 0 0
M  V30 BEGIN ATOM
M  V30 1 C -1.400041 -4.690118 2.603705 0
M  V30 2 C -0.317222 -3.898527 1.951770 0
M  V30 3 C 1.016606 -4.083598 2.249845 0
M  V30 4 C 1.982721 -3.307547 1.601219 0
M  V30 5 C 3.423098 -3.508699 1.925377 0
M  V30 6 N 1.670155 -2.372890 0.684867 0
M  V30 7 N 2.314126 -1.510043 -0.074400 0
M  V30 8 C 1.458935 -0.791669 -0.833690 0
M  V30 9 S 1.873619 0.469149 -2.000212 0
M  V30 10 C 0.414241 1.171414 -2.768424 0
M  V30 11 C -0.454217 1.961736 -1.819259 0
M  V30 12 C 0.365139 3.097501 -1.258394 0
M  V30 13 O 0.896678 2.784423 0.009971 0
M  V30 14 C 0.026790 2.446621 1.031617 0
M  V30 15 C 0.020377 2.805758 2.374627 0
M  V30 16 C -0.975085 2.328697 3.213168 0
M  V30 17 C -1.946053 1.500259 2.692575 0
M  V30 18 C -1.974615 1.118819 1.360554 0
M  V30 19 C -0.967555 1.602983 0.517063 0
M  V30 20 O -1.031366 1.198149 -0.807817 0
M  V30 21 N 0.247260 -1.261126 -0.499280 0
M  V30 22 C 0.358317 -2.228284 0.427576 0
M  V30 23 N -0.603047 -2.950910 1.025763 0
M  V30 24 H -2.368126 -4.141308 2.418698 0
M  V30 25 H -1.213454 -4.892440 3.670980 0
M  V30 26 H -1.468558 -5.634678 2.033482 0
M  V30 27 H 1.282325 -4.831401 2.984434 0
M  V30 28 H 3.994945 -2.544625 1.881598 0
M  V30 29 H 3.546653 -3.919033 2.959939 0
M  V30 30 H 3.924728 -4.196343 1.230679 0
M  V30 31 H -0.258899 0.360719 -3.173027 0
M  V30 32 H 0.639755 1.812451 -3.631731 0
M  V30 33 H -1.263725 2.411002 -2.440515 0
M  V30 34 H -0.299341 3.982146 -1.174928 0
M  V30 35 H 1.205756 3.326025 -1.950652 0
M  V30 36 H 0.846007 3.459450 2.634344 0
M  V30 37 H -0.917402 2.649223 4.247016 0
M  V30 38 H -2.693948 1.167380 3.414117 0
M  V30 39 H -2.768614 0.468532 1.033455 0
M  V30 END ATOM
M  V30 BEGIN BOND
M  V30 1 1 1 2
M  V30 2 1 2 3
M  V30 3 2 3 4
M  V30 4 1 4 5
M  V30 5 1 4 6
M  V30 6 1 6 7
M  V30 7 2 7 8
M  V30 8 1 8 9
M  V30 9 1 9 10
M  V30 10 1 10 11
M  V30 11 1 11 12
M  V30 12 1 12 13
M  V30 13 1 13 14
M  V30 14 2 14 15
M  V30 15 1 15 16
M  V30 16 2 16 17
M  V30 17 1 17 18
M  V30 18 2 18 19
M  V30 19 1 19 20
M  V30 20 1 8 21
M  V30 21 2 21 22
M  V30 22 1 22 23
M  V30 23 2 23 2
M  V30 24 1 22 6
M  V30 25 1 20 11
M  V30 26 1 19 14
M  V30 27 1 1 24
M  V30 28 1 1 25
M  V30 29 1 1 26
M  V30 30 1 3 27
M  V30 31 1 5 28
M  V30 32 1 5 29
M  V30 33 1 5 30
M  V30 34 1 10 31
M  V30 35 1 10 32
M  V30 36 1 11 33
M  V30 37 1 12 34
M  V30 38 1 12 35
M  V30 39 1 15 36
M  V30 40 1 16 37
M  V30 41 1 17 38
M  V30 42 1 18 39
M  V30 END BOND
M  V30 END CTAB
M  END
>  <Dataset>  (908) 
ChEMBL_Kinases

>  <Ligand_Instance>  (908) 
nan

>  <PDB_ID>  (908) 
nan

>  <Standardized_SMILES>  (908) 
Cc1cc(C)n2nc(SCC3COc4ccccc4O3)nc2n1

>  <Name>  (908) 
nan

>  <Pocket>  (908) 
nan

>  <ATP_Site>  (908) 
nan

>  <Peripheral>  (908) 
nan

>  <Num_H_Atoms_ProtBoundConf>  (908) 
nan

>  <Num_Resolved_Atoms>  (908) 
nan

>  <Num_Not_Resolved_Atoms>  (908) 
nan

$$$$
CHEMBL1496423
     RDKit          3D

  0  0  0  0  0  0  0  0  0  0999 V3000
M  V30 BEGIN CTAB
M  V30 COUNTS 30 30 0 0 0
M  V30 BEGIN ATOM
M  V30 1 C -0.784946 -2.941131 4.405138 0
M  V30 2 C 0.569562 -2.367341 4.041242 0
M  V30 3 O 0.414175 -1.659317 2.849467 0
M  V30 4 C 1.378176 -0.973762 2.148581 0
M  V30 5 O 2.525281 -1.006541 2.667186 0
M  V30 6 C 0.832389 -0.348196 0.929524 0
M  V30 7 C 0.282100 0.920418 0.779419 0
M  V30 8 C 0.149233 1.896326 1.875936 0
M  V30 9 N -0.099531 1.107517 -0.496509 0
M  V30 10 C 0.186572 -0.006109 -1.186600 0
M  V30 11 C -0.050544 -0.258815 -2.603542 0
M  V30 12 C -0.674901 0.756395 -3.491184 0
M  V30 13 O 0.229971 -1.318044 -3.225084 0
M  V30 14 C 0.763690 -0.928603 -0.338991 0
M  V30 15 C 1.266227 -2.315572 -0.588248 0
M  V30 16 H -1.327267 -3.151569 3.465101 0
M  V30 17 H -0.725272 -3.823789 5.070877 0
M  V30 18 H -1.329485 -2.088459 4.902390 0
M  V30 19 H 1.259792 -3.230490 4.001969 0
M  V30 20 H 0.968450 -1.723063 4.873742 0
M  V30 21 H 0.795680 2.797269 1.701894 0
M  V30 22 H -0.919488 2.252735 1.894366 0
M  V30 23 H 0.392186 1.469585 2.848179 0
M  V30 24 H -0.542778 1.929784 -0.955013 0
M  V30 25 H -0.782561 1.751205 -3.024991 0
M  V30 26 H -0.084142 0.905888 -4.430470 0
M  V30 27 H -1.698249 0.434981 -3.773958 0
M  V30 28 H 2.388265 -2.357768 -0.514509 0
M  V30 29 H 0.891064 -2.765724 -1.506375 0
M  V30 30 H 0.929225 -2.974950 0.263369 0
M  V30 END ATOM
M  V30 BEGIN BOND
M  V30 1 1 1 2
M  V30 2 1 2 3
M  V30 3 1 3 4
M  V30 4 2 4 5
M  V30 5 1 4 6
M  V30 6 2 6 7
M  V30 7 1 7 8
M  V30 8 1 7 9
M  V30 9 1 9 10
M  V30 10 1 10 11
M  V30 11 1 11 12
M  V30 12 2 11 13
M  V30 13 2 10 14
M  V30 14 1 14 15
M  V30 15 1 14 6
M  V30 16 1 1 16
M  V30 17 1 1 17
M  V30 18 1 1 18
M  V30 19 1 2 19
M  V30 20 1 2 20
M  V30 21 1 8 21
M  V30 22 1 8 22
M  V30 23 1 8 23
M  V30 24 1 9 24
M  V30 25 1 12 25
M  V30 26 1 12 26
M  V30 27 1 12 27
M  V30 28 1 15 28
M  V30 29 1 15 29
M  V30 30 1 15 30
M  V30 END BOND
M  V30 END CTAB
M  END
>  <Dataset>  (909) 
ChEMBL_Kinases

>  <Ligand_Instance>  (909) 
nan

>  <PDB_ID>  (909) 
nan

>  <Standardized_SMILES>  (909) 
CCOC(=O)c1c(C)[nH]c(C(C)=O)c1C

>  <Name>  (909) 
nan

>  <Pocket>  (909) 
nan

>  <ATP_Site>  (909) 
nan

>  <Peripheral>  (909) 
nan

>  <Num_H_Atoms_ProtBoundConf>  (909) 
nan

>  <Num_Resolved_Atoms>  (909) 
nan

>  <Num_Not_Resolved_Atoms>  (909) 
nan

$$$$
CHEMBL1496384
     RDKit          3D

  0  0  0  0  0  0  0  0  0  0999 V3000
M  V30 BEGIN CTAB
M  V30 COUNTS 39 42 0 0 0
M  V30 BEGIN ATOM
M  V30 1 O -2.072134 0.010696 2.882209 0
M  V30 2 C -0.695234 -0.175211 2.867543 0
M  V30 3 C -0.045361 -0.439496 1.722659 0
M  V30 4 C 1.408288 -0.622823 1.790591 0
M  V30 5 N 2.149567 -1.347410 1.016674 0
M  V30 6 C 1.755351 -2.147528 -0.090551 0
M  V30 7 C 2.817268 -2.949992 -0.480438 0
M  V30 8 C 2.657550 -3.814756 -1.545423 0
M  V30 9 C 1.447773 -3.882559 -2.220935 0
M  V30 10 C 0.390757 -3.064348 -1.810671 0
M  V30 11 C 0.545756 -2.202862 -0.751755 0
M  V30 12 N -0.602922 -1.430270 -0.438812 0
M  V30 13 C -0.958135 -0.495228 0.578771 0
M  V30 14 C -1.230342 0.824422 -0.021828 0
M  V30 15 C -0.730080 1.980159 0.525261 0
M  V30 16 C -1.003294 3.200311 -0.061335 0
M  V30 17 C -1.787723 3.209325 -1.202306 0
M  V30 18 N -2.270085 2.076293 -1.726915 0
M  V30 19 C -2.001214 0.895107 -1.152696 0
M  V30 20 C 2.147128 0.107952 2.880737 0
M  V30 21 C 1.454019 -0.243682 4.157337 0
M  V30 22 C -0.020482 -0.062869 4.171708 0
M  V30 23 H -2.620955 -0.848824 3.037366 0
M  V30 24 H 3.801677 -2.960174 -0.005262 0
M  V30 25 H 3.493214 -4.455592 -1.862911 0
M  V30 26 H 1.340417 -4.570304 -3.058193 0
M  V30 27 H -0.561444 -3.102966 -2.325546 0
M  V30 28 H -1.371374 -1.594676 -1.130583 0
M  V30 29 H -1.952258 -0.838153 0.991384 0
M  V30 30 H -0.124732 1.905394 1.416313 0
M  V30 31 H -0.597491 4.100161 0.388308 0
M  V30 32 H -1.952345 4.209113 -1.596870 0
M  V30 33 H -2.441623 0.058579 -1.662466 0
M  V30 34 H 2.095995 1.181681 2.630125 0
M  V30 35 H 3.188829 -0.266322 2.955642 0
M  V30 36 H 1.928054 0.408823 4.948064 0
M  V30 37 H 1.751663 -1.280092 4.432440 0
M  V30 38 H -0.288057 0.877937 4.694821 0
M  V30 39 H -0.459060 -0.890621 4.803657 0
M  V30 END ATOM
M  V30 BEGIN BOND
M  V30 1 1 1 2
M  V30 2 2 2 3
M  V30 3 1 3 4
M  V30 4 2 4 5
M  V30 5 1 5 6
M  V30 6 2 6 7
M  V30 7 1 7 8
M  V30 8 2 8 9
M  V30 9 1 9 10
M  V30 10 2 10 11
M  V30 11 1 11 12
M  V30 12 1 12 13
M  V30 13 1 13 14
M  V30 14 2 14 15
M  V30 15 1 15 16
M  V30 16 2 16 17
M  V30 17 1 17 18
M  V30 18 2 18 19
M  V30 19 1 4 20
M  V30 20 1 20 21
M  V30 21 1 21 22
M  V30 22 1 22 2
M  V30 23 1 13 3
M  V30 24 1 19 14
M  V30 25 1 11 6
M  V30 26 1 1 23
M  V30 27 1 7 24
M  V30 28 1 8 25
M  V30 29 1 9 26
M  V30 30 1 10 27
M  V30 31 1 12 28
M  V30 32 1 13 29
M  V30 33 1 15 30
M  V30 34 1 16 31
M  V30 35 1 17 32
M  V30 36 1 19 33
M  V30 37 1 20 34
M  V30 38 1 20 35
M  V30 39 1 21 36
M  V30 40 1 21 37
M  V30 41 1 22 38
M  V30 42 1 22 39
M  V30 END BOND
M  V30 END CTAB
M  END
>  <Dataset>  (910) 
ChEMBL_Kinases

>  <Ligand_Instance>  (910) 
nan

>  <PDB_ID>  (910) 
nan

>  <Standardized_SMILES>  (910) 
OC1=C2C(=Nc3ccccc3NC2c2cccnc2)CCC1

>  <Name>  (910) 
nan

>  <Pocket>  (910) 
nan

>  <ATP_Site>  (910) 
nan

>  <Peripheral>  (910) 
nan

>  <Num_H_Atoms_ProtBoundConf>  (910) 
nan

>  <Num_Resolved_Atoms>  (910) 
nan

>  <Num_Not_Resolved_Atoms>  (910) 
nan

$$$$
CHEMBL1496363
     RDKit          3D

  0  0  0  0  0  0  0  0  0  0999 V3000
M  V30 BEGIN CTAB
M  V30 COUNTS 68 73 0 0 0
M  V30 BEGIN ATOM
M  V30 1 C 4.591507 -2.744827 3.118938 0
M  V30 2 S 5.835164 -1.451780 2.843203 0
M  V30 3 C 4.944078 0.110286 2.938479 0
M  V30 4 N 4.759077 0.813170 4.066264 0
M  V30 5 C 4.071960 1.971815 4.064120 0
M  V30 6 N 3.585815 2.379904 2.877143 0
M  V30 7 C 3.735261 1.729408 1.729207 0
M  V30 8 C 4.446097 0.529069 1.724228 0
M  V30 9 N 4.431651 0.095254 0.462644 0
M  V30 10 C 3.742915 0.991789 -0.261278 0
M  V30 11 N 3.295638 2.019014 0.495434 0
M  V30 12 C 2.531787 3.169847 -0.009648 0
M  V30 13 C 1.105416 2.904499 0.212536 0
M  V30 14 O 0.900284 3.659544 1.199733 0
M  V30 15 C -0.165571 2.285195 -0.049603 0 CFG=1
M  V30 16 C -0.731942 2.351867 -1.439355 0
M  V30 17 C -1.994522 1.480733 -1.246516 0
M  V30 18 C -1.842036 0.756549 0.046718 0 CFG=1
M  V30 19 C -2.376098 -0.606130 0.137903 0 CFG=1
M  V30 20 C -3.786421 -0.603219 -0.427310 0
M  V30 21 C -4.419947 -1.929529 -0.077367 0
M  V30 22 C -3.563002 -3.095005 -0.427591 0
M  V30 23 C -4.081163 -4.144035 -1.086018 0
M  V30 24 C -3.233111 -5.303512 -1.436678 0
M  V30 25 O -3.831744 -6.407058 -1.473070 0
M  V30 26 C -1.811768 -4.878974 -1.674584 0
M  V30 27 C -1.341784 -4.201967 -0.409541 0
M  V30 28 C -2.138428 -3.011549 0.001384 0 CFG=2
M  V30 29 C -2.164654 -2.994391 1.527857 0
M  V30 30 C -1.608184 -1.705952 -0.521419 0 CFG=2
M  V30 31 C -0.118981 -1.533150 -0.342964 0
M  V30 32 C 0.209998 -0.106512 -0.814697 0
M  V30 33 C -0.308476 0.812836 0.231778 0 CFG=1
M  V30 34 C 0.125389 0.433911 1.605301 0
M  V30 35 H 5.089328 -3.702762 3.305876 0
M  V30 36 H 3.959020 -2.894015 2.202387 0
M  V30 37 H 3.879070 -2.476056 3.922135 0
M  V30 38 H 3.952660 2.496077 4.991701 0
M  V30 39 H 3.585447 0.869551 -1.333324 0
M  V30 40 H 2.960968 4.028431 0.527201 0
M  V30 41 H 2.784187 3.354160 -1.078697 0
M  V30 42 H -1.010155 2.745192 0.582511 0
M  V30 43 H -0.107291 1.956186 -2.235469 0
M  V30 44 H -1.017235 3.398379 -1.717679 0
M  V30 45 H -2.159298 0.871482 -2.130225 0
M  V30 46 H -2.824866 2.226055 -1.092769 0
M  V30 47 H -2.234592 1.352853 0.907384 0
M  V30 48 H -2.442316 -0.868500 1.234616 0
M  V30 49 H -4.397228 0.176622 0.048098 0
M  V30 50 H -3.758679 -0.525822 -1.529411 0
M  V30 51 H -5.333028 -1.994451 -0.735695 0
M  V30 52 H -4.801551 -1.979757 0.949828 0
M  V30 53 H -5.155807 -4.063011 -1.330519 0
M  V30 54 H -1.229462 -5.835368 -1.743046 0
M  V30 55 H -1.708689 -4.254628 -2.558975 0
M  V30 56 H -1.406164 -4.997915 0.392825 0
M  V30 57 H -0.273310 -4.021312 -0.531794 0
M  V30 58 H -1.290313 -2.525175 1.971638 0
M  V30 59 H -2.124543 -4.078074 1.861822 0
M  V30 60 H -3.142359 -2.644005 1.930116 0
M  V30 61 H -1.798022 -1.634288 -1.616883 0
M  V30 62 H 0.444927 -2.182035 -1.051500 0
M  V30 63 H 0.191110 -1.668721 0.696568 0
M  V30 64 H -0.375123 -0.010708 -1.771463 0
M  V30 65 H 1.277933 -0.100590 -0.972463 0
M  V30 66 H 1.130436 -0.059385 1.547190 0
M  V30 67 H -0.543763 -0.283145 2.112592 0
M  V30 68 H 0.267279 1.366770 2.194957 0
M  V30 END ATOM
M  V30 BEGIN BOND
M  V30 1 1 1 2
M  V30 2 1 2 3
M  V30 3 2 3 4
M  V30 4 1 4 5
M  V30 5 2 5 6
M  V30 6 1 6 7
M  V30 7 2 7 8
M  V30 8 1 8 9
M  V30 9 2 9 10
M  V30 10 1 10 11
M  V30 11 1 11 12
M  V30 12 1 12 13
M  V30 13 2 13 14
M  V30 14 1 13 15
M  V30 15 1 15 16
M  V30 16 1 16 17
M  V30 17 1 17 18
M  V30 18 1 18 19
M  V30 19 1 19 20
M  V30 20 1 20 21
M  V30 21 1 21 22
M  V30 22 2 22 23
M  V30 23 1 23 24
M  V30 24 2 24 25
M  V30 25 1 24 26
M  V30 26 1 26 27
M  V30 27 1 27 28
M  V30 28 1 28 29 CFG=1
M  V30 29 1 28 30
M  V30 30 1 30 31
M  V30 31 1 31 32
M  V30 32 1 32 33
M  V30 33 1 33 34 CFG=1
M  V30 34 1 8 3
M  V30 35 1 33 15
M  V30 36 1 11 7
M  V30 37 1 33 18
M  V30 38 1 30 19
M  V30 39 1 28 22
M  V30 40 1 1 35
M  V30 41 1 1 36
M  V30 42 1 1 37
M  V30 43 1 5 38
M  V30 44 1 10 39
M  V30 45 1 12 40
M  V30 46 1 12 41
M  V30 47 1 15 42 CFG=1
M  V30 48 1 16 43
M  V30 49 1 16 44
M  V30 50 1 17 45
M  V30 51 1 17 46
M  V30 52 1 18 47 CFG=1
M  V30 53 1 19 48 CFG=1
M  V30 54 1 20 49
M  V30 55 1 20 50
M  V30 56 1 21 51
M  V30 57 1 21 52
M  V30 58 1 23 53
M  V30 59 1 26 54
M  V30 60 1 26 55
M  V30 61 1 27 56
M  V30 62 1 27 57
M  V30 63 1 29 58
M  V30 64 1 29 59
M  V30 65 1 29 60
M  V30 66 1 30 61 CFG=3
M  V30 67 1 31 62
M  V30 68 1 31 63
M  V30 69 1 32 64
M  V30 70 1 32 65
M  V30 71 1 34 66
M  V30 72 1 34 67
M  V30 73 1 34 68
M  V30 END BOND
M  V30 END CTAB
M  END
>  <Dataset>  (911) 
ChEMBL_Kinases

>  <Ligand_Instance>  (911) 
nan

>  <PDB_ID>  (911) 
nan

>  <Standardized_SMILES>  (911) 
CSc1ncnc2c1ncn2CC(=O)[C@H]1CC[C@H]2[C@H]3CCC4=CC(=O)CC[C@@]4(C)[C@@H]3CC[C@@]12C

>  <Name>  (911) 
nan

>  <Pocket>  (911) 
nan

>  <ATP_Site>  (911) 
nan

>  <Peripheral>  (911) 
nan

>  <Num_H_Atoms_ProtBoundConf>  (911) 
nan

>  <Num_Resolved_Atoms>  (911) 
nan

>  <Num_Not_Resolved_Atoms>  (911) 
nan

$$$$
CHEMBL1496315
     RDKit          3D

  0  0  0  0  0  0  0  0  0  0999 V3000
M  V30 BEGIN CTAB
M  V30 COUNTS 45 48 0 0 0
M  V30 BEGIN ATOM
M  V30 1 C 3.141467 -4.016748 -1.556798 0
M  V30 2 O 2.755513 -3.095119 -0.556142 0
M  V30 3 C 3.655146 -2.504757 0.314522 0
M  V30 4 C 5.016378 -2.724278 0.330591 0
M  V30 5 C 5.794664 -2.048339 1.277367 0
M  V30 6 C 5.219728 -1.179714 2.178244 0
M  V30 7 C 3.858374 -0.967262 2.153951 0
M  V30 8 C 3.075200 -1.633440 1.217658 0
M  V30 9 C 1.618639 -1.355533 1.249698 0
M  V30 10 C 1.190980 -0.434602 0.126370 0
M  V30 11 N -0.241615 -0.224666 0.244897 0
M  V30 12 C -0.724220 0.797488 0.982333 0
M  V30 13 O 0.037099 1.586051 1.578623 0
M  V30 14 C -2.098274 0.944467 1.056889 0
M  V30 15 C -2.718116 2.019133 1.829710 0
M  V30 16 C -2.339381 2.400656 3.119573 0
M  V30 17 C -3.015225 3.431687 3.725274 0
M  V30 18 F -2.594501 3.757226 4.991781 0
M  V30 19 C -4.056374 4.129443 3.146146 0
M  V30 20 C -4.443755 3.755050 1.853687 0
M  V30 21 F -5.460010 4.398634 1.225650 0
M  V30 22 C -3.760008 2.713885 1.244069 0
M  V30 23 N -2.905274 0.082410 0.405548 0
M  V30 24 C -2.424531 -0.937647 -0.330324 0
M  V30 25 C -3.290779 -1.810935 -0.991143 0
M  V30 26 N -2.740530 -2.814611 -1.713203 0
M  V30 27 C -1.399854 -2.976479 -1.799274 0
M  V30 28 N -0.564877 -2.116676 -1.149149 0
M  V30 29 C -1.051968 -1.098971 -0.415345 0
M  V30 30 H 3.210283 -5.024757 -1.064506 0
M  V30 31 H 2.286131 -4.101536 -2.278402 0
M  V30 32 H 4.072461 -3.749939 -2.065969 0
M  V30 33 H 5.419249 -3.413735 -0.395023 0
M  V30 34 H 6.854945 -2.275231 1.224842 0
M  V30 35 H 5.933830 -0.728684 2.850436 0
M  V30 36 H 3.457353 -0.275924 2.882375 0
M  V30 37 H 1.106188 -2.335694 1.078854 0
M  V30 38 H 1.310301 -0.955260 2.225736 0
M  V30 39 H 1.452990 -0.944547 -0.824107 0
M  V30 40 H 1.743956 0.536440 0.178186 0
M  V30 41 H -1.532528 1.838500 3.532411 0
M  V30 42 H -4.563977 4.939510 3.662895 0
M  V30 43 H -4.093833 2.452781 0.235005 0
M  V30 44 H -4.337016 -1.612473 -0.871097 0
M  V30 45 H -1.025400 -3.798811 -2.392692 0
M  V30 END ATOM
M  V30 BEGIN BOND
M  V30 1 1 1 2
M  V30 2 1 2 3
M  V30 3 2 3 4
M  V30 4 1 4 5
M  V30 5 2 5 6
M  V30 6 1 6 7
M  V30 7 2 7 8
M  V30 8 1 8 9
M  V30 9 1 9 10
M  V30 10 1 10 11
M  V30 11 1 11 12
M  V30 12 2 12 13
M  V30 13 1 12 14
M  V30 14 1 14 15
M  V30 15 2 15 16
M  V30 16 1 16 17
M  V30 17 1 17 18
M  V30 18 2 17 19
M  V30 19 1 19 20
M  V30 20 1 20 21
M  V30 21 2 20 22
M  V30 22 2 14 23
M  V30 23 1 23 24
M  V30 24 2 24 25
M  V30 25 1 25 26
M  V30 26 2 26 27
M  V30 27 1 27 28
M  V30 28 2 28 29
M  V30 29 1 8 3
M  V30 30 1 29 11
M  V30 31 1 22 15
M  V30 32 1 29 24
M  V30 33 1 1 30
M  V30 34 1 1 31
M  V30 35 1 1 32
M  V30 36 1 4 33
M  V30 37 1 5 34
M  V30 38 1 6 35
M  V30 39 1 7 36
M  V30 40 1 9 37
M  V30 41 1 9 38
M  V30 42 1 10 39
M  V30 43 1 10 40
M  V30 44 1 16 41
M  V30 45 1 19 42
M  V30 46 1 22 43
M  V30 47 1 25 44
M  V30 48 1 27 45
M  V30 END BOND
M  V30 END CTAB
M  END
>  <Dataset>  (912) 
ChEMBL_Kinases

>  <Ligand_Instance>  (912) 
nan

>  <PDB_ID>  (912) 
nan

>  <Standardized_SMILES>  (912) 
COc1ccccc1CCn1c(=O)c(-c2cc(F)cc(F)c2)nc2cncnc21

>  <Name>  (912) 
nan

>  <Pocket>  (912) 
nan

>  <ATP_Site>  (912) 
nan

>  <Peripheral>  (912) 
nan

>  <Num_H_Atoms_ProtBoundConf>  (912) 
nan

>  <Num_Resolved_Atoms>  (912) 
nan

>  <Num_Not_Resolved_Atoms>  (912) 
nan

$$$$
CHEMBL1496098
     RDKit          3D

  0  0  0  0  0  0  0  0  0  0999 V3000
M  V30 BEGIN CTAB
M  V30 COUNTS 32 35 0 0 0
M  V30 BEGIN ATOM
M  V30 1 O -2.530064 -2.155326 1.836107 0
M  V30 2 C -1.366887 -2.520252 1.545344 0
M  V30 3 N -0.991734 -3.882270 1.709906 0
M  V30 4 C 0.382813 -3.927372 1.286132 0
M  V30 5 C 1.172930 -5.084051 1.277313 0
M  V30 6 C 2.476019 -5.020341 0.853474 0
M  V30 7 C 2.956968 -3.773926 0.443139 0
M  V30 8 C 2.115793 -2.684219 0.481954 0
M  V30 9 C 0.818089 -2.684537 0.890937 0
M  V30 10 C -0.253367 -1.739250 1.032313 0
M  V30 11 C -0.210211 -0.476188 0.756522 0
M  V30 12 N 0.872125 0.272951 0.259929 0
M  V30 13 C 0.524597 1.638099 0.086122 0
M  V30 14 C 1.163376 2.803259 -0.357023 0
M  V30 15 C 0.577980 4.031831 -0.427516 0
M  V30 16 C -0.738203 4.121353 -0.031283 0
M  V30 17 C -1.422469 3.024393 0.412040 0
M  V30 18 C -0.813222 1.782536 0.477773 0
M  V30 19 C -1.296622 0.478141 0.900846 0
M  V30 20 N -2.469090 0.279596 1.311575 0
M  V30 21 O -3.380938 1.288205 1.389619 0
M  V30 22 H -1.589450 -4.684266 2.064760 0
M  V30 23 H 0.808029 -6.051194 1.593099 0
M  V30 24 H 3.080320 -5.895593 0.844781 0
M  V30 25 H 3.985583 -3.773279 0.118888 0
M  V30 26 H 2.612361 -1.811067 0.144203 0
M  V30 27 H 1.825614 0.041263 0.007507 0
M  V30 28 H 2.209497 2.726949 -0.670881 0
M  V30 29 H 1.149870 4.877505 -0.783274 0
M  V30 30 H -1.166808 5.121799 -0.103849 0
M  V30 31 H -2.425365 3.245466 0.682234 0
M  V30 32 H -4.379649 1.085489 1.374680 0
M  V30 END ATOM
M  V30 BEGIN BOND
M  V30 1 2 1 2
M  V30 2 1 2 3
M  V30 3 1 3 4
M  V30 4 2 4 5
M  V30 5 1 5 6
M  V30 6 2 6 7
M  V30 7 1 7 8
M  V30 8 2 8 9
M  V30 9 1 9 10
M  V30 10 2 10 11
M  V30 11 1 11 12
M  V30 12 1 12 13
M  V30 13 2 13 14
M  V30 14 1 14 15
M  V30 15 2 15 16
M  V30 16 1 16 17
M  V30 17 2 17 18
M  V30 18 1 18 19
M  V30 19 2 19 20
M  V30 20 1 20 21
M  V30 21 1 10 2
M  V30 22 1 19 11
M  V30 23 1 9 4
M  V30 24 1 18 13
M  V30 25 1 3 22
M  V30 26 1 5 23
M  V30 27 1 6 24
M  V30 28 1 7 25
M  V30 29 1 8 26
M  V30 30 1 12 27
M  V30 31 1 14 28
M  V30 32 1 15 29
M  V30 33 1 16 30
M  V30 34 1 17 31
M  V30 35 1 21 32
M  V30 END BOND
M  V30 END CTAB
M  END
>  <Dataset>  (913) 
ChEMBL_Kinases

>  <Ligand_Instance>  (913) 
nan

>  <PDB_ID>  (913) 
nan

>  <Standardized_SMILES>  (913) 
O=C1Nc2ccccc2/C1=C1\Nc2ccccc2\C1=N/O

>  <Name>  (913) 
nan

>  <Pocket>  (913) 
nan

>  <ATP_Site>  (913) 
nan

>  <Peripheral>  (913) 
nan

>  <Num_H_Atoms_ProtBoundConf>  (913) 
nan

>  <Num_Resolved_Atoms>  (913) 
nan

>  <Num_Not_Resolved_Atoms>  (913) 
nan

$$$$
CHEMBL1494884
     RDKit          3D

  0  0  0  0  0  0  0  0  0  0999 V3000
M  V30 BEGIN CTAB
M  V30 COUNTS 40 42 0 0 0
M  V30 BEGIN ATOM
M  V30 1 C 1.418903 -6.388464 1.859613 0
M  V30 2 O 1.709949 -5.904355 0.558870 0
M  V30 3 C 1.172459 -4.720181 0.073691 0
M  V30 4 C 1.418689 -4.193174 -1.190316 0
M  V30 5 C 0.834275 -2.997657 -1.587694 0
M  V30 6 C -0.009232 -2.308741 -0.721842 0
M  V30 7 N -0.557178 -1.077522 -1.240753 0
M  V30 8 C 0.038626 0.220605 -1.024745 0
M  V30 9 C 1.089420 0.691298 -1.670352 0
M  V30 10 Cl 2.144156 0.084417 -2.928485 0
M  V30 11 C 1.399570 2.028731 -1.180412 0
M  V30 12 O 2.267333 2.914520 -1.432065 0
M  V30 13 N 0.457771 2.380231 -0.162440 0
M  V30 14 C 0.163912 3.472646 0.726486 0
M  V30 15 C -0.633360 4.584072 0.563101 0
M  V30 16 C -0.736096 5.479079 1.606882 0
M  V30 17 C -0.066453 5.288043 2.795424 0
M  V30 18 C 0.732736 4.176722 2.962974 0
M  V30 19 C 0.860902 3.244096 1.922018 0
M  V30 20 C -0.417820 1.237103 -0.051528 0
M  V30 21 O -1.414007 1.007668 0.682312 0
M  V30 22 C -0.263024 -2.831830 0.553776 0
M  V30 23 O -1.112110 -2.025186 1.269067 0
M  V30 24 C -1.542182 -2.294562 2.575145 0
M  V30 25 C 0.343160 -4.011046 0.881501 0
M  V30 26 H 0.313055 -6.463783 1.966034 0
M  V30 27 H 1.831982 -7.394398 1.979400 0
M  V30 28 H 1.786085 -5.681753 2.649242 0
M  V30 29 H 2.094376 -4.796489 -1.811394 0
M  V30 30 H 1.113375 -2.711963 -2.589190 0
M  V30 31 H -1.421625 -0.888375 -1.828698 0
M  V30 32 H -1.090289 4.604362 -0.406794 0
M  V30 33 H -1.373992 6.329096 1.417546 0
M  V30 34 H -0.168229 6.012503 3.601583 0
M  V30 35 H 1.244710 4.064128 3.923590 0
M  V30 36 H 1.512626 2.429180 2.188729 0
M  V30 37 H -2.663421 -2.328788 2.643504 0
M  V30 38 H -1.137534 -3.237531 2.971981 0
M  V30 39 H -1.250458 -1.474092 3.286478 0
M  V30 40 H 0.112421 -4.367055 1.873588 0
M  V30 END ATOM
M  V30 BEGIN BOND
M  V30 1 1 1 2
M  V30 2 1 2 3
M  V30 3 2 3 4
M  V30 4 1 4 5
M  V30 5 2 5 6
M  V30 6 1 6 7
M  V30 7 1 7 8
M  V30 8 2 8 9
M  V30 9 1 9 10
M  V30 10 1 9 11
M  V30 11 2 11 12
M  V30 12 1 11 13
M  V30 13 1 13 14
M  V30 14 2 14 15
M  V30 15 1 15 16
M  V30 16 2 16 17
M  V30 17 1 17 18
M  V30 18 2 18 19
M  V30 19 1 13 20
M  V30 20 2 20 21
M  V30 21 1 6 22
M  V30 22 1 22 23
M  V30 23 1 23 24
M  V30 24 2 22 25
M  V30 25 1 25 3
M  V30 26 1 20 8
M  V30 27 1 19 14
M  V30 28 1 1 26
M  V30 29 1 1 27
M  V30 30 1 1 28
M  V30 31 1 4 29
M  V30 32 1 5 30
M  V30 33 1 7 31
M  V30 34 1 15 32
M  V30 35 1 16 33
M  V30 36 1 17 34
M  V30 37 1 18 35
M  V30 38 1 19 36
M  V30 39 1 24 37
M  V30 40 1 24 38
M  V30 41 1 24 39
M  V30 42 1 25 40
M  V30 END BOND
M  V30 END CTAB
M  END
>  <Dataset>  (914) 
ChEMBL_Kinases

>  <Ligand_Instance>  (914) 
nan

>  <PDB_ID>  (914) 
nan

>  <Standardized_SMILES>  (914) 
COc1ccc(NC2=C(Cl)C(=O)N(c3ccccc3)C2=O)c(OC)c1

>  <Name>  (914) 
nan

>  <Pocket>  (914) 
nan

>  <ATP_Site>  (914) 
nan

>  <Peripheral>  (914) 
nan

>  <Num_H_Atoms_ProtBoundConf>  (914) 
nan

>  <Num_Resolved_Atoms>  (914) 
nan

>  <Num_Not_Resolved_Atoms>  (914) 
nan

$$$$
CHEMBL1494943
     RDKit          3D

  0  0  0  0  0  0  0  0  0  0999 V3000
M  V30 BEGIN CTAB
M  V30 COUNTS 40 41 0 0 0
M  V30 BEGIN ATOM
M  V30 1 C 1.200176 -2.698375 3.999833 0
M  V30 2 C -0.192312 -2.461309 3.410713 0
M  V30 3 C -0.072550 -2.812989 1.945040 0
M  V30 4 C 0.939399 -1.960054 1.252645 0
M  V30 5 O 1.690947 -1.018446 1.679609 0
M  V30 6 N 1.106795 -2.237808 -0.141213 0
M  V30 7 N 2.067553 -1.428606 -0.800535 0
M  V30 8 C 1.605601 -0.226112 -1.371860 0
M  V30 9 O 0.394037 0.055253 -1.266992 0
M  V30 10 N 2.415372 0.714827 -2.072140 0
M  V30 11 C 1.766679 1.878407 -2.581464 0
M  V30 12 C 1.183228 2.024545 -3.830282 0
M  V30 13 C 0.591968 3.229190 -4.167815 0
M  V30 14 C 0.574185 4.282123 -3.284960 0
M  V30 15 C 1.157276 4.132052 -2.040457 0
M  V30 16 C 1.751451 2.937560 -1.687126 0
M  V30 17 O -0.465722 -1.138846 3.625843 0
M  V30 18 C -1.796111 -0.799798 3.396995 0
M  V30 19 C -2.610735 -1.652630 4.360644 0
M  V30 20 C -2.373153 -3.074421 3.885667 0
M  V30 21 O -1.025899 -3.357682 4.025385 0
M  V30 22 H 1.133396 -3.243056 4.986459 0
M  V30 23 H 1.811954 -3.364611 3.359097 0
M  V30 24 H 1.755104 -1.754280 4.167091 0
M  V30 25 H -1.048986 -2.716498 1.451140 0
M  V30 26 H 0.279815 -3.852930 1.794212 0
M  V30 27 H 0.572953 -2.984002 -0.680633 0
M  V30 28 H 3.104753 -1.631521 -0.911456 0
M  V30 29 H 3.435213 0.477015 -2.159803 0
M  V30 30 H 1.256779 1.135993 -4.437056 0
M  V30 31 H 0.170257 3.229974 -5.162519 0
M  V30 32 H 0.081456 5.162195 -3.675012 0
M  V30 33 H 1.082237 5.025726 -1.432607 0
M  V30 34 H 2.180978 2.923606 -0.685540 0
M  V30 35 H -1.918734 0.276719 3.545743 0
M  V30 36 H -2.061186 -1.172291 2.386859 0
M  V30 37 H -2.287507 -1.487822 5.408109 0
M  V30 38 H -3.676653 -1.365492 4.201239 0
M  V30 39 H -2.939352 -3.832085 4.421155 0
M  V30 40 H -2.637185 -3.061966 2.791818 0
M  V30 END ATOM
M  V30 BEGIN BOND
M  V30 1 1 1 2
M  V30 2 1 2 3
M  V30 3 1 3 4
M  V30 4 2 4 5
M  V30 5 1 4 6
M  V30 6 1 6 7
M  V30 7 1 7 8
M  V30 8 2 8 9
M  V30 9 1 8 10
M  V30 10 1 10 11
M  V30 11 2 11 12
M  V30 12 1 12 13
M  V30 13 2 13 14
M  V30 14 1 14 15
M  V30 15 2 15 16
M  V30 16 1 2 17
M  V30 17 1 17 18
M  V30 18 1 18 19
M  V30 19 1 19 20
M  V30 20 1 20 21
M  V30 21 1 21 2
M  V30 22 1 16 11
M  V30 23 1 1 22
M  V30 24 1 1 23
M  V30 25 1 1 24
M  V30 26 1 3 25
M  V30 27 1 3 26
M  V30 28 1 6 27
M  V30 29 1 7 28
M  V30 30 1 10 29
M  V30 31 1 12 30
M  V30 32 1 13 31
M  V30 33 1 14 32
M  V30 34 1 15 33
M  V30 35 1 16 34
M  V30 36 1 18 35
M  V30 37 1 18 36
M  V30 38 1 19 37
M  V30 39 1 19 38
M  V30 40 1 20 39
M  V30 41 1 20 40
M  V30 END BOND
M  V30 END CTAB
M  END
>  <Dataset>  (915) 
ChEMBL_Kinases

>  <Ligand_Instance>  (915) 
nan

>  <PDB_ID>  (915) 
nan

>  <Standardized_SMILES>  (915) 
CC1(CC(=O)NNC(=O)Nc2ccccc2)OCCCO1

>  <Name>  (915) 
nan

>  <Pocket>  (915) 
nan

>  <ATP_Site>  (915) 
nan

>  <Peripheral>  (915) 
nan

>  <Num_H_Atoms_ProtBoundConf>  (915) 
nan

>  <Num_Resolved_Atoms>  (915) 
nan

>  <Num_Not_Resolved_Atoms>  (915) 
nan

$$$$
CHEMBL1494973
     RDKit          3D

  0  0  0  0  0  0  0  0  0  0999 V3000
M  V30 BEGIN CTAB
M  V30 COUNTS 44 46 0 0 0
M  V30 BEGIN ATOM
M  V30 1 C -3.393211 -2.586098 -4.891167 0
M  V30 2 C -2.112968 -3.054760 -4.206443 0
M  V30 3 N -1.057141 -2.065369 -4.286243 0
M  V30 4 C -0.633952 -1.948087 -5.647711 0
M  V30 5 C 0.051034 -3.259932 -6.005797 0
M  V30 6 C -0.528667 -1.331057 -3.192198 0
M  V30 7 C -0.966602 -1.474050 -1.899928 0
M  V30 8 C -0.447015 -0.755394 -0.827904 0
M  V30 9 C 0.559120 0.143498 -1.088942 0
M  V30 10 N 1.113728 0.883513 -0.014510 0
M  V30 11 C 0.703931 0.754419 1.339249 0
M  V30 12 C 1.062468 -0.407790 1.862772 0
M  V30 13 Cl 1.935024 -1.674216 1.046182 0
M  V30 14 C 0.696928 -0.672581 3.272690 0
M  V30 15 O 0.988681 -1.742639 3.865243 0
M  V30 16 C -0.038337 0.348843 4.024967 0
M  V30 17 C -0.415560 0.179487 5.346207 0
M  V30 18 C -1.113208 1.174022 6.032694 0
M  V30 19 C -1.448967 2.362172 5.406312 0
M  V30 20 C -1.090865 2.579693 4.074090 0
M  V30 21 C -0.404252 1.555496 3.462431 0
M  V30 22 C -0.027124 1.780507 2.072271 0
M  V30 23 O -0.262646 2.807406 1.374645 0
M  V30 24 C 1.017716 0.308291 -2.371837 0
M  V30 25 C 0.475928 -0.427384 -3.425165 0
M  V30 26 H -3.325288 -2.731970 -5.969244 0
M  V30 27 H -3.640173 -1.541825 -4.607536 0
M  V30 28 H -4.190421 -3.275270 -4.515997 0
M  V30 29 H -2.395686 -3.280209 -3.160392 0
M  V30 30 H -1.832725 -3.999882 -4.724875 0
M  V30 31 H 0.001467 -1.081764 -5.883273 0
M  V30 32 H -1.518152 -1.875212 -6.339482 0
M  V30 33 H 0.600147 -3.697429 -5.141559 0
M  V30 34 H 0.814153 -3.050909 -6.782971 0
M  V30 35 H -0.642038 -4.024045 -6.370722 0
M  V30 36 H -1.741077 -2.152671 -1.639620 0
M  V30 37 H -0.832073 -0.904629 0.190134 0
M  V30 38 H 1.849220 1.598803 0.066155 0
M  V30 39 H -0.137908 -0.760816 5.805428 0
M  V30 40 H -1.367820 0.958650 7.064976 0
M  V30 41 H -1.992425 3.128869 5.945437 0
M  V30 42 H -1.338213 3.492533 3.565286 0
M  V30 43 H 1.817504 1.040471 -2.496951 0
M  V30 44 H 0.934115 -0.191728 -4.359640 0
M  V30 END ATOM
M  V30 BEGIN BOND
M  V30 1 1 1 2
M  V30 2 1 2 3
M  V30 3 1 3 4
M  V30 4 1 4 5
M  V30 5 1 3 6
M  V30 6 2 6 7
M  V30 7 1 7 8
M  V30 8 2 8 9
M  V30 9 1 9 10
M  V30 10 1 10 11
M  V30 11 2 11 12
M  V30 12 1 12 13
M  V30 13 1 12 14
M  V30 14 2 14 15
M  V30 15 1 14 16
M  V30 16 2 16 17
M  V30 17 1 17 18
M  V30 18 2 18 19
M  V30 19 1 19 20
M  V30 20 2 20 21
M  V30 21 1 21 22
M  V30 22 2 22 23
M  V30 23 1 9 24
M  V30 24 2 24 25
M  V30 25 1 25 6
M  V30 26 1 22 11
M  V30 27 1 21 16
M  V30 28 1 1 26
M  V30 29 1 1 27
M  V30 30 1 1 28
M  V30 31 1 2 29
M  V30 32 1 2 30
M  V30 33 1 4 31
M  V30 34 1 4 32
M  V30 35 1 5 33
M  V30 36 1 5 34
M  V30 37 1 5 35
M  V30 38 1 7 36
M  V30 39 1 8 37
M  V30 40 1 10 38
M  V30 41 1 17 39
M  V30 42 1 18 40
M  V30 43 1 19 41
M  V30 44 1 20 42
M  V30 45 1 24 43
M  V30 46 1 25 44
M  V30 END BOND
M  V30 END CTAB
M  END
>  <Dataset>  (916) 
ChEMBL_Kinases

>  <Ligand_Instance>  (916) 
nan

>  <PDB_ID>  (916) 
nan

>  <Standardized_SMILES>  (916) 
CCN(CC)c1ccc(NC2=C(Cl)C(=O)c3ccccc3C2=O)cc1

>  <Name>  (916) 
nan

>  <Pocket>  (916) 
nan

>  <ATP_Site>  (916) 
nan

>  <Peripheral>  (916) 
nan

>  <Num_H_Atoms_ProtBoundConf>  (916) 
nan

>  <Num_Resolved_Atoms>  (916) 
nan

>  <Num_Not_Resolved_Atoms>  (916) 
nan

$$$$
CHEMBL1494981
     RDKit          3D

  0  0  0  0  0  0  0  0  0  0999 V3000
M  V30 BEGIN CTAB
M  V30 COUNTS 45 47 0 0 0
M  V30 BEGIN ATOM
M  V30 1 C -1.277423 -3.891955 0.566492 0
M  V30 2 C 0.155563 -3.389440 0.346836 0
M  V30 3 C 0.232510 -2.920459 -1.063126 0
M  V30 4 C 1.545237 -2.384119 -1.505904 0
M  V30 5 N 2.039458 -1.241782 -0.810968 0
M  V30 6 C 1.673041 0.107521 -0.599440 0
M  V30 7 C 2.228566 0.916050 -1.596136 0
M  V30 8 N 3.049893 0.436359 -2.681946 0 CHG=1 VAL=4
M  V30 9 O 3.094554 1.039860 -3.769558 0
M  V30 10 O 3.826858 -0.705194 -2.594335 0 CHG=-1 VAL=1
M  V30 11 C 2.017816 2.298056 -1.612164 0
M  V30 12 C 1.249667 2.885592 -0.632019 0
M  V30 13 C 0.708454 2.078005 0.343641 0
M  V30 14 C 0.910162 0.727987 0.365323 0
M  V30 15 N 0.337043 0.113431 1.341645 0
M  V30 16 C -0.345258 1.130388 2.097669 0
M  V30 17 C 0.182246 1.139816 3.503396 0
M  V30 18 C -0.475798 0.081994 4.318888 0
M  V30 19 C -1.019124 -1.092508 3.552907 0
M  V30 20 C -1.890357 -0.691634 2.395995 0
M  V30 21 C -1.802663 0.810640 2.141960 0
M  V30 22 N -0.034733 2.329669 1.366946 0 CHG=1 VAL=4
M  V30 23 O -0.471674 3.595861 1.708603 0 CHG=-1 VAL=1
M  V30 24 H -1.446654 -4.100755 1.649378 0
M  V30 25 H -2.033504 -3.148490 0.267420 0
M  V30 26 H -1.477710 -4.824007 0.010583 0
M  V30 27 H 0.778843 -4.320659 0.468729 0
M  V30 28 H 0.359600 -2.660923 1.125689 0
M  V30 29 H -0.617690 -2.228878 -1.269358 0
M  V30 30 H 0.020067 -3.813573 -1.705518 0
M  V30 31 H 1.411162 -2.094706 -2.590963 0
M  V30 32 H 2.289100 -3.197732 -1.509756 0
M  V30 33 H 2.929694 -1.315976 -0.264529 0
M  V30 34 H 2.439474 2.938048 -2.374794 0
M  V30 35 H 1.044182 3.947262 -0.580934 0
M  V30 36 H 1.284155 1.124862 3.572026 0
M  V30 37 H -0.114166 2.132599 3.937966 0
M  V30 38 H -1.265282 0.479247 4.988678 0
M  V30 39 H 0.295890 -0.342096 5.014434 0
M  V30 40 H -0.250688 -1.852584 3.300275 0
M  V30 41 H -1.710450 -1.615867 4.276140 0
M  V30 42 H -1.468339 -1.153272 1.479625 0
M  V30 43 H -2.926543 -1.050976 2.463763 0
M  V30 44 H -2.353696 1.073916 1.235693 0
M  V30 45 H -2.292652 1.277417 3.040891 0
M  V30 END ATOM
M  V30 BEGIN BOND
M  V30 1 1 1 2
M  V30 2 1 2 3
M  V30 3 1 3 4
M  V30 4 1 4 5
M  V30 5 1 5 6
M  V30 6 2 6 7
M  V30 7 1 7 8
M  V30 8 2 8 9
M  V30 9 1 8 10
M  V30 10 1 7 11
M  V30 11 2 11 12
M  V30 12 1 12 13
M  V30 13 1 13 14
M  V30 14 2 14 15
M  V30 15 1 15 16
M  V30 16 1 16 17
M  V30 17 1 17 18
M  V30 18 1 18 19
M  V30 19 1 19 20
M  V30 20 1 20 21
M  V30 21 1 16 22
M  V30 22 1 22 23
M  V30 23 1 14 6
M  V30 24 1 21 16
M  V30 25 2 22 13
M  V30 26 1 1 24
M  V30 27 1 1 25
M  V30 28 1 1 26
M  V30 29 1 2 27
M  V30 30 1 2 28
M  V30 31 1 3 29
M  V30 32 1 3 30
M  V30 33 1 4 31
M  V30 34 1 4 32
M  V30 35 1 5 33
M  V30 36 1 11 34
M  V30 37 1 12 35
M  V30 38 1 17 36
M  V30 39 1 17 37
M  V30 40 1 18 38
M  V30 41 1 18 39
M  V30 42 1 19 40
M  V30 43 1 19 41
M  V30 44 1 20 42
M  V30 45 1 20 43
M  V30 46 1 21 44
M  V30 47 1 21 45
M  V30 END BOND
M  V30 END CTAB
M  END
>  <Dataset>  (917) 
ChEMBL_Kinases

>  <Ligand_Instance>  (917) 
nan

>  <PDB_ID>  (917) 
nan

>  <Standardized_SMILES>  (917) 
CCCCNc1c([N+](=O)[O-])ccc2c1=NC1(CCCCC1)[N+]=2[O-]

>  <Name>  (917) 
nan

>  <Pocket>  (917) 
nan

>  <ATP_Site>  (917) 
nan

>  <Peripheral>  (917) 
nan

>  <Num_H_Atoms_ProtBoundConf>  (917) 
nan

>  <Num_Resolved_Atoms>  (917) 
nan

>  <Num_Not_Resolved_Atoms>  (917) 
nan

$$$$
CHEMBL1495002
     RDKit          3D

  0  0  0  0  0  0  0  0  0  0999 V3000
M  V30 BEGIN CTAB
M  V30 COUNTS 52 55 0 0 0
M  V30 BEGIN ATOM
M  V30 1 C 0.175018 2.114194 6.678242 0
M  V30 2 O 0.836398 0.884880 6.478538 0
M  V30 3 C 1.368068 0.472599 5.266946 0
M  V30 4 C 1.320124 1.208098 4.102293 0
M  V30 5 C 1.856733 0.773776 2.912714 0
M  V30 6 C 2.481225 -0.441562 2.827737 0
M  V30 7 C 3.164479 -1.110006 1.660030 0
M  V30 8 N 2.336506 -0.925896 0.484662 0
M  V30 9 C 2.706815 0.082899 -0.357686 0
M  V30 10 S 4.124199 1.128178 -0.355602 0
M  V30 11 C 3.932700 2.650796 0.567943 0
M  V30 12 C 2.887203 3.521078 -0.026630 0
M  V30 13 N 2.065867 4.205073 -0.474458 0
M  V30 14 N 1.883629 0.291709 -1.427131 0
M  V30 15 C 0.781515 -0.427915 -1.663730 0
M  V30 16 C -0.036542 -0.192744 -2.760811 0
M  V30 17 C -1.157057 -0.974676 -2.942157 0
M  V30 18 C -1.552612 -1.996572 -2.113713 0
M  V30 19 N -2.702234 -2.764987 -2.343992 0
M  V30 20 C -3.568608 -2.612142 -3.492851 0
M  V30 21 C -4.921631 -2.136985 -2.968226 0
M  V30 22 O -4.970854 -2.198147 -1.579556 0
M  V30 23 C -4.614090 -3.440473 -1.092303 0
M  V30 24 C -3.179731 -3.810319 -1.464559 0
M  V30 25 C -0.710198 -2.187547 -1.045303 0
M  V30 26 C 0.426677 -1.444142 -0.801343 0
M  V30 27 C 1.243715 -1.661462 0.274432 0
M  V30 28 O 0.989984 -2.559824 1.096579 0
M  V30 29 C 2.519700 -1.176572 4.024217 0
M  V30 30 C 1.987536 -0.758562 5.224842 0
M  V30 31 H 0.885765 2.957357 6.900597 0
M  V30 32 H -0.352537 2.375939 5.741359 0
M  V30 33 H -0.603473 2.029452 7.465839 0
M  V30 34 H 0.841925 2.174475 4.107403 0
M  V30 35 H 1.824679 1.296222 1.991134 0
M  V30 36 H 4.122049 -0.572873 1.523135 0
M  V30 37 H 3.347806 -2.175822 1.876780 0
M  V30 38 H 4.886685 3.252340 0.504698 0
M  V30 39 H 3.723195 2.544635 1.641643 0
M  V30 40 H 0.263165 0.603772 -3.415327 0
M  V30 41 H -1.709867 -0.695461 -3.825486 0
M  V30 42 H -3.187806 -1.969651 -4.284506 0
M  V30 43 H -3.734952 -3.629902 -3.921653 0
M  V30 44 H -5.092514 -1.064032 -3.222076 0
M  V30 45 H -5.748926 -2.709969 -3.446086 0
M  V30 46 H -5.347688 -4.169108 -1.491467 0
M  V30 47 H -4.756591 -3.428119 0.005254 0
M  V30 48 H -2.566944 -4.006178 -0.588864 0
M  V30 49 H -3.271266 -4.728788 -2.119777 0
M  V30 50 H -0.887247 -2.949446 -0.310646 0
M  V30 51 H 3.000903 -2.166789 4.053655 0
M  V30 52 H 2.053448 -1.377344 6.108957 0
M  V30 END ATOM
M  V30 BEGIN BOND
M  V30 1 1 1 2
M  V30 2 1 2 3
M  V30 3 2 3 4
M  V30 4 1 4 5
M  V30 5 2 5 6
M  V30 6 1 6 7
M  V30 7 1 7 8
M  V30 8 1 8 9
M  V30 9 1 9 10
M  V30 10 1 10 11
M  V30 11 1 11 12
M  V30 12 3 12 13
M  V30 13 2 9 14
M  V30 14 1 14 15
M  V30 15 2 15 16
M  V30 16 1 16 17
M  V30 17 2 17 18
M  V30 18 1 18 19
M  V30 19 1 19 20
M  V30 20 1 20 21
M  V30 21 1 21 22
M  V30 22 1 22 23
M  V30 23 1 23 24
M  V30 24 1 18 25
M  V30 25 2 25 26
M  V30 26 1 26 27
M  V30 27 2 27 28
M  V30 28 1 6 29
M  V30 29 2 29 30
M  V30 30 1 30 3
M  V30 31 1 27 8
M  V30 32 1 26 15
M  V30 33 1 24 19
M  V30 34 1 1 31
M  V30 35 1 1 32
M  V30 36 1 1 33
M  V30 37 1 4 34
M  V30 38 1 5 35
M  V30 39 1 7 36
M  V30 40 1 7 37
M  V30 41 1 11 38
M  V30 42 1 11 39
M  V30 43 1 16 40
M  V30 44 1 17 41
M  V30 45 1 20 42
M  V30 46 1 20 43
M  V30 47 1 21 44
M  V30 48 1 21 45
M  V30 49 1 23 46
M  V30 50 1 23 47
M  V30 51 1 24 48
M  V30 52 1 24 49
M  V30 53 1 25 50
M  V30 54 1 29 51
M  V30 55 1 30 52
M  V30 END BOND
M  V30 END CTAB
M  END
>  <Dataset>  (918) 
ChEMBL_Kinases

>  <Ligand_Instance>  (918) 
nan

>  <PDB_ID>  (918) 
nan

>  <Standardized_SMILES>  (918) 
COc1ccc(Cn2c(SCC#N)nc3ccc(N4CCOCC4)cc3c2=O)cc1

>  <Name>  (918) 
nan

>  <Pocket>  (918) 
nan

>  <ATP_Site>  (918) 
nan

>  <Peripheral>  (918) 
nan

>  <Num_H_Atoms_ProtBoundConf>  (918) 
nan

>  <Num_Resolved_Atoms>  (918) 
nan

>  <Num_Not_Resolved_Atoms>  (918) 
nan

$$$$
CHEMBL1495228
     RDKit          3D

  0  0  0  0  0  0  0  0  0  0999 V3000
M  V30 BEGIN CTAB
M  V30 COUNTS 45 48 0 0 0
M  V30 BEGIN ATOM
M  V30 1 C -2.504997 -4.895798 0.115253 0
M  V30 2 O -1.896447 -4.654913 -1.111281 0
M  V30 3 C -0.973181 -3.680335 -1.378830 0
M  V30 4 C -0.617557 -2.867220 -0.336941 0
M  V30 5 C 0.320256 -1.848358 -0.533078 0
M  V30 6 C 0.859891 -1.709801 -1.817013 0
M  V30 7 C 1.842602 -0.653048 -2.051067 0
M  V30 8 C 1.259262 0.665675 -2.482139 0
M  V30 9 N 0.344413 1.244265 -1.535081 0
M  V30 10 C -1.069564 0.950038 -1.589445 0
M  V30 11 O -1.729482 0.076691 -2.215520 0
M  V30 12 C -1.777540 1.909402 -0.713465 0
M  V30 13 C -2.228187 1.363628 0.598523 0
M  V30 14 C -1.102513 0.964608 1.487024 0
M  V30 15 C -0.486948 2.079249 1.943707 0
M  V30 16 C -1.105787 3.183570 1.154507 0
M  V30 17 C -2.566176 2.709172 1.266282 0
M  V30 18 C -0.744260 2.929277 -0.269190 0
M  V30 19 C 0.526512 2.147645 -0.422655 0
M  V30 20 O 1.645280 2.133853 0.195622 0
M  V30 21 C 0.469302 -2.555130 -2.836471 0
M  V30 22 C -0.460826 -3.570541 -2.654747 0
M  V30 23 O -0.895930 -4.446687 -3.619000 0
M  V30 24 C -0.447356 -4.429309 -4.941892 0
M  V30 25 H -3.073190 -3.979485 0.436873 0
M  V30 26 H -3.190256 -5.757762 0.005232 0
M  V30 27 H -1.812060 -5.137965 0.944642 0
M  V30 28 H -1.049954 -2.989816 0.661467 0
M  V30 29 H 0.646099 -1.178004 0.226413 0
M  V30 30 H 2.496768 -0.992111 -2.879341 0
M  V30 31 H 2.440897 -0.489821 -1.131809 0
M  V30 32 H 2.133710 1.366037 -2.572892 0
M  V30 33 H 0.793000 0.589836 -3.486090 0
M  V30 34 H -2.619478 2.409078 -1.213591 0
M  V30 35 H -3.062243 0.676226 0.589477 0
M  V30 36 H -0.680019 0.005775 1.838292 0
M  V30 37 H 0.281467 2.309720 2.686010 0
M  V30 38 H -0.958678 4.178685 1.550783 0
M  V30 39 H -2.871160 2.601746 2.305218 0
M  V30 40 H -3.232367 3.303147 0.618599 0
M  V30 41 H -0.743006 3.832612 -0.902827 0
M  V30 42 H 0.882806 -2.453635 -3.832522 0
M  V30 43 H -1.257264 -4.846885 -5.584319 0
M  V30 44 H -0.230249 -3.404508 -5.255405 0
M  V30 45 H 0.421827 -5.110882 -5.027948 0
M  V30 END ATOM
M  V30 BEGIN BOND
M  V30 1 1 1 2
M  V30 2 1 2 3
M  V30 3 2 3 4
M  V30 4 1 4 5
M  V30 5 2 5 6
M  V30 6 1 6 7
M  V30 7 1 7 8
M  V30 8 1 8 9
M  V30 9 1 9 10
M  V30 10 2 10 11
M  V30 11 1 10 12
M  V30 12 1 12 13
M  V30 13 1 13 14
M  V30 14 2 14 15
M  V30 15 1 15 16
M  V30 16 1 16 17
M  V30 17 1 16 18
M  V30 18 1 18 19
M  V30 19 2 19 20
M  V30 20 1 6 21
M  V30 21 2 21 22
M  V30 22 1 22 23
M  V30 23 1 23 24
M  V30 24 1 22 3
M  V30 25 1 19 9
M  V30 26 1 18 12
M  V30 27 1 17 13
M  V30 28 1 1 25
M  V30 29 1 1 26
M  V30 30 1 1 27
M  V30 31 1 4 28
M  V30 32 1 5 29
M  V30 33 1 7 30
M  V30 34 1 7 31
M  V30 35 1 8 32
M  V30 36 1 8 33
M  V30 37 1 12 34
M  V30 38 1 13 35
M  V30 39 1 14 36
M  V30 40 1 15 37
M  V30 41 1 16 38
M  V30 42 1 17 39
M  V30 43 1 17 40
M  V30 44 1 18 41
M  V30 45 1 21 42
M  V30 46 1 24 43
M  V30 47 1 24 44
M  V30 48 1 24 45
M  V30 END BOND
M  V30 END CTAB
M  END
>  <Dataset>  (919) 
ChEMBL_Kinases

>  <Ligand_Instance>  (919) 
nan

>  <PDB_ID>  (919) 
nan

>  <Standardized_SMILES>  (919) 
COc1ccc(CCN2C(=O)C3C4C=CC(C4)C3C2=O)cc1OC

>  <Name>  (919) 
nan

>  <Pocket>  (919) 
nan

>  <ATP_Site>  (919) 
nan

>  <Peripheral>  (919) 
nan

>  <Num_H_Atoms_ProtBoundConf>  (919) 
nan

>  <Num_Resolved_Atoms>  (919) 
nan

>  <Num_Not_Resolved_Atoms>  (919) 
nan

$$$$
CHEMBL1495244
     RDKit          3D

  0  0  0  0  0  0  0  0  0  0999 V3000
M  V30 BEGIN CTAB
M  V30 COUNTS 36 37 0 0 0
M  V30 BEGIN ATOM
M  V30 1 C -1.897747 -3.540154 4.736507 0
M  V30 2 O -2.073086 -2.867309 3.522445 0
M  V30 3 C -1.173280 -2.774382 2.480124 0
M  V30 4 C 0.094594 -3.314243 2.417323 0
M  V30 5 C 0.850433 -3.109494 1.275242 0
M  V30 6 C 0.416400 -2.382671 0.156271 0
M  V30 7 C 1.303130 -2.191685 -1.023326 0
M  V30 8 C 1.682700 -0.756086 -1.214167 0
M  V30 9 O 0.724753 0.025283 -1.548921 0
M  V30 10 N 2.937480 -0.106250 -1.087366 0
M  V30 11 C 2.731045 1.272060 -1.395848 0
M  V30 12 N 2.410528 2.167343 -0.636928 0
M  V30 13 C 2.244960 3.420632 -0.992606 0
M  V30 14 C 1.840464 4.543099 -0.080069 0
M  V30 15 C 2.483708 3.679363 -2.435408 0
M  V30 16 S 2.918584 1.998173 -3.023345 0
M  V30 17 C -0.854687 -1.869735 0.277157 0
M  V30 18 C -1.630534 -2.050490 1.391733 0
M  V30 19 O -2.900028 -1.481102 1.398130 0
M  V30 20 C -3.365297 -0.732303 0.286401 0
M  V30 21 H -0.818303 -3.727889 4.903714 0
M  V30 22 H -2.488432 -4.467901 4.844493 0
M  V30 23 H -2.203673 -2.803110 5.535287 0
M  V30 24 H 0.416614 -3.870555 3.281704 0
M  V30 25 H 1.856337 -3.561288 1.270957 0
M  V30 26 H 2.218147 -2.808222 -0.845131 0
M  V30 27 H 0.753939 -2.605292 -1.898550 0
M  V30 28 H 3.708089 -0.743813 -0.808790 0
M  V30 29 H 1.581876 4.115891 0.918196 0
M  V30 30 H 0.972158 5.112663 -0.476256 0
M  V30 31 H 2.641980 5.273471 0.072869 0
M  V30 32 H 2.345759 4.833087 -2.845611 0
M  V30 33 H -1.132189 -1.311879 -0.626321 0
M  V30 34 H -4.311019 -0.188089 0.566931 0
M  V30 35 H -3.518988 -1.311084 -0.625074 0
M  V30 36 H -2.552750 0.007088 0.023215 0
M  V30 END ATOM
M  V30 BEGIN BOND
M  V30 1 1 1 2
M  V30 2 1 2 3
M  V30 3 2 3 4
M  V30 4 1 4 5
M  V30 5 2 5 6
M  V30 6 1 6 7
M  V30 7 1 7 8
M  V30 8 2 8 9
M  V30 9 1 8 10
M  V30 10 1 10 11
M  V30 11 2 11 12
M  V30 12 1 12 13
M  V30 13 1 13 14
M  V30 14 2 13 15
M  V30 15 1 15 16
M  V30 16 1 6 17
M  V30 17 2 17 18
M  V30 18 1 18 19
M  V30 19 1 19 20
M  V30 20 1 18 3
M  V30 21 1 16 11
M  V30 22 1 1 21
M  V30 23 1 1 22
M  V30 24 1 1 23
M  V30 25 1 4 24
M  V30 26 1 5 25
M  V30 27 1 7 26
M  V30 28 1 7 27
M  V30 29 1 10 28
M  V30 30 1 14 29
M  V30 31 1 14 30
M  V30 32 1 14 31
M  V30 33 1 15 32
M  V30 34 1 17 33
M  V30 35 1 20 34
M  V30 36 1 20 35
M  V30 37 1 20 36
M  V30 END BOND
M  V30 END CTAB
M  END
>  <Dataset>  (920) 
ChEMBL_Kinases

>  <Ligand_Instance>  (920) 
nan

>  <PDB_ID>  (920) 
nan

>  <Standardized_SMILES>  (920) 
COc1ccc(CC(=O)Nc2nc(C)cs2)cc1OC

>  <Name>  (920) 
nan

>  <Pocket>  (920) 
nan

>  <ATP_Site>  (920) 
nan

>  <Peripheral>  (920) 
nan

>  <Num_H_Atoms_ProtBoundConf>  (920) 
nan

>  <Num_Resolved_Atoms>  (920) 
nan

>  <Num_Not_Resolved_Atoms>  (920) 
nan

$$$$
CHEMBL1495282
     RDKit          3D

  0  0  0  0  0  0  0  0  0  0999 V3000
M  V30 BEGIN CTAB
M  V30 COUNTS 50 54 0 0 0
M  V30 BEGIN ATOM
M  V30 1 C -0.040877 -6.459715 1.516568 0
M  V30 2 C -0.574447 -5.298742 2.327891 0
M  V30 3 C -1.786184 -5.650851 3.154873 0
M  V30 4 C -0.701643 -4.065518 1.540469 0
M  V30 5 N 0.306667 -3.171881 1.600283 0
M  V30 6 C 0.344609 -2.003232 0.945451 0
M  V30 7 O 1.214603 -1.019375 0.873813 0
M  V30 8 C 0.770110 -0.078348 0.074557 0
M  V30 9 C 1.273709 1.137320 -0.341123 0
M  V30 10 N 2.540747 1.578992 0.127878 0
M  V30 11 C 3.089264 2.834134 -0.284975 0
M  V30 12 C 2.235763 4.032915 0.085245 0
M  V30 13 C 3.020823 5.256073 -0.337976 0
M  V30 14 C 2.921976 6.134716 0.892653 0
M  V30 15 C 2.837736 5.088308 1.978391 0
M  V30 16 O 2.107722 4.054701 1.450118 0
M  V30 17 N 0.547174 1.885305 -1.190164 0
M  V30 18 C -0.651967 1.546577 -1.680422 0
M  V30 19 N -1.154441 0.344923 -1.272176 0
M  V30 20 C -0.465197 -0.437578 -0.424539 0
M  V30 21 C -0.721321 -1.667256 0.140781 0
M  V30 22 C -1.757717 -2.570800 0.070541 0
M  V30 23 C -1.818018 -3.787435 0.740363 0
M  V30 24 C -3.055418 -4.487676 0.426211 0
M  V30 25 C -3.962719 -3.361756 -0.088260 0
M  V30 26 C -3.003216 -2.422546 -0.732740 0
M  V30 27 H 0.483140 -6.166019 0.610478 0
M  V30 28 H 0.635485 -7.098018 2.119384 0
M  V30 29 H -0.923771 -7.128986 1.297461 0
M  V30 30 H 0.239954 -5.123429 3.101922 0
M  V30 31 H -2.439163 -4.766441 3.295966 0
M  V30 32 H -1.491645 -5.999189 4.171989 0
M  V30 33 H -2.421212 -6.425817 2.645665 0
M  V30 34 H 3.087891 0.985894 0.784043 0
M  V30 35 H 3.094494 2.835840 -1.414173 0
M  V30 36 H 4.120347 2.997533 0.035783 0
M  V30 37 H 1.236611 4.000535 -0.354356 0
M  V30 38 H 4.057001 5.029677 -0.593730 0
M  V30 39 H 2.447708 5.747409 -1.148964 0
M  V30 40 H 1.990335 6.732766 0.898333 0
M  V30 41 H 3.785942 6.817311 1.011966 0
M  V30 42 H 2.414910 5.498978 2.916010 0
M  V30 43 H 3.888434 4.754401 2.153265 0
M  V30 44 H -1.173105 2.205823 -2.360593 0
M  V30 45 H -3.609199 -4.940775 1.241423 0
M  V30 46 H -2.826842 -5.199325 -0.403616 0
M  V30 47 H -4.401450 -2.880267 0.786915 0
M  V30 48 H -4.694041 -3.808191 -0.791691 0
M  V30 49 H -2.762021 -2.750622 -1.747417 0
M  V30 50 H -3.356019 -1.371782 -0.680513 0
M  V30 END ATOM
M  V30 BEGIN BOND
M  V30 1 1 1 2
M  V30 2 1 2 3
M  V30 3 1 2 4
M  V30 4 2 4 5
M  V30 5 1 5 6
M  V30 6 1 6 7
M  V30 7 1 7 8
M  V30 8 2 8 9
M  V30 9 1 9 10
M  V30 10 1 10 11
M  V30 11 1 11 12
M  V30 12 1 12 13
M  V30 13 1 13 14
M  V30 14 1 14 15
M  V30 15 1 15 16
M  V30 16 1 9 17
M  V30 17 2 17 18
M  V30 18 1 18 19
M  V30 19 2 19 20
M  V30 20 1 20 21
M  V30 21 1 21 22
M  V30 22 2 22 23
M  V30 23 1 23 24
M  V30 24 1 24 25
M  V30 25 1 25 26
M  V30 26 1 23 4
M  V30 27 2 21 6
M  V30 28 1 26 22
M  V30 29 1 20 8
M  V30 30 1 16 12
M  V30 31 1 1 27
M  V30 32 1 1 28
M  V30 33 1 1 29
M  V30 34 1 2 30
M  V30 35 1 3 31
M  V30 36 1 3 32
M  V30 37 1 3 33
M  V30 38 1 10 34
M  V30 39 1 11 35
M  V30 40 1 11 36
M  V30 41 1 12 37
M  V30 42 1 13 38
M  V30 43 1 13 39
M  V30 44 1 14 40
M  V30 45 1 14 41
M  V30 46 1 15 42
M  V30 47 1 15 43
M  V30 48 1 18 44
M  V30 49 1 24 45
M  V30 50 1 24 46
M  V30 51 1 25 47
M  V30 52 1 25 48
M  V30 53 1 26 49
M  V30 54 1 26 50
M  V30 END BOND
M  V30 END CTAB
M  END
>  <Dataset>  (921) 
ChEMBL_Kinases

>  <Ligand_Instance>  (921) 
nan

>  <PDB_ID>  (921) 
nan

>  <Standardized_SMILES>  (921) 
CC(C)c1nc2oc3c(NCC4CCCO4)ncnc3c2c2c1CCC2

>  <Name>  (921) 
nan

>  <Pocket>  (921) 
nan

>  <ATP_Site>  (921) 
nan

>  <Peripheral>  (921) 
nan

>  <Num_H_Atoms_ProtBoundConf>  (921) 
nan

>  <Num_Resolved_Atoms>  (921) 
nan

>  <Num_Not_Resolved_Atoms>  (921) 
nan

$$$$
CHEMBL1496083
     RDKit          3D

  0  0  0  0  0  0  0  0  0  0999 V3000
M  V30 BEGIN CTAB
M  V30 COUNTS 57 60 0 0 0
M  V30 BEGIN ATOM
M  V30 1 C 3.423349 -4.942458 3.899401 0
M  V30 2 O 2.835310 -5.249221 2.645252 0
M  V30 3 C 2.818375 -4.257545 1.666447 0
M  V30 4 C 3.360891 -3.008743 1.913774 0
M  V30 5 C 3.336010 -2.040016 0.935578 0
M  V30 6 C 2.790852 -2.241083 -0.306222 0
M  V30 7 N 2.765311 -1.248933 -1.315225 0
M  V30 8 C 3.313399 0.083124 -1.266577 0
M  V30 9 C 2.221455 1.102320 -1.257669 0
M  V30 10 N 0.979638 0.440041 -1.653629 0
M  V30 11 C -0.115954 0.553761 -0.764485 0
M  V30 12 N 0.050318 1.197742 0.403915 0
M  V30 13 C -0.933971 1.339578 1.306809 0
M  V30 14 S -0.598760 2.140805 2.679448 0
M  V30 15 N -2.167658 0.843368 1.105534 0
M  V30 16 C -3.205856 0.997543 2.067081 0
M  V30 17 C -2.960810 0.332522 3.260474 0
M  V30 18 C -3.869559 0.376573 4.307517 0
M  V30 19 C -5.042313 1.096371 4.160889 0
M  V30 20 C -5.287243 1.758135 2.974681 0
M  V30 21 C -4.382858 1.714878 1.931342 0
M  V30 22 C -2.411523 0.185168 -0.042426 0
M  V30 23 C -3.758489 -0.370594 -0.289433 0
M  V30 24 C -1.384345 0.053818 -0.952154 0
M  V30 25 C -1.711847 -0.645942 -2.159324 0
M  V30 26 C -2.204745 0.461434 -3.056145 0
M  V30 27 O -1.424417 -1.810475 -1.854897 0
M  V30 28 C 1.229739 -0.182821 -2.900908 0
M  V30 29 C 2.175372 -1.367257 -2.618072 0
M  V30 30 C 2.257064 -3.485685 -0.534583 0
M  V30 31 C 2.271664 -4.469396 0.430869 0
M  V30 32 H 3.460217 -5.869362 4.526430 0
M  V30 33 H 4.475839 -4.642354 3.717797 0
M  V30 34 H 2.817667 -4.191126 4.416356 0
M  V30 35 H 3.795467 -2.839305 2.895040 0
M  V30 36 H 3.776374 -1.120753 1.227429 0
M  V30 37 H 4.052517 0.253535 -2.092369 0
M  V30 38 H 3.852169 0.176662 -0.290537 0
M  V30 39 H 2.119304 1.610836 -0.254659 0
M  V30 40 H 2.441174 1.883274 -2.041006 0
M  V30 41 H -2.072260 -0.258275 3.474354 0
M  V30 42 H -3.707438 -0.133474 5.255330 0
M  V30 43 H -5.806268 1.190160 4.912762 0
M  V30 44 H -6.160854 2.345772 2.749165 0
M  V30 45 H -4.491585 2.201468 0.969103 0
M  V30 46 H -4.169177 -0.834765 0.640919 0
M  V30 47 H -4.419880 0.438547 -0.676706 0
M  V30 48 H -3.729498 -1.150810 -1.078191 0
M  V30 49 H -2.453398 -0.063192 -4.019717 0
M  V30 50 H -3.121807 0.905640 -2.673158 0
M  V30 51 H -1.412876 1.169602 -3.288943 0
M  V30 52 H 1.730037 0.525761 -3.619381 0
M  V30 53 H 0.395862 -0.600092 -3.453339 0
M  V30 54 H 3.004721 -1.288472 -3.368050 0
M  V30 55 H 1.663306 -2.319974 -2.782771 0
M  V30 56 H 1.795331 -3.802714 -1.449686 0
M  V30 57 H 1.858667 -5.457352 0.277660 0
M  V30 END ATOM
M  V30 BEGIN BOND
M  V30 1 1 1 2
M  V30 2 1 2 3
M  V30 3 2 3 4
M  V30 4 1 4 5
M  V30 5 2 5 6
M  V30 6 1 6 7
M  V30 7 1 7 8
M  V30 8 1 8 9
M  V30 9 1 9 10
M  V30 10 1 10 11
M  V30 11 2 11 12
M  V30 12 1 12 13
M  V30 13 2 13 14
M  V30 14 1 13 15
M  V30 15 1 15 16
M  V30 16 2 16 17
M  V30 17 1 17 18
M  V30 18 2 18 19
M  V30 19 1 19 20
M  V30 20 2 20 21
M  V30 21 1 15 22
M  V30 22 1 22 23
M  V30 23 2 22 24
M  V30 24 1 24 25
M  V30 25 1 25 26
M  V30 26 2 25 27
M  V30 27 1 10 28
M  V30 28 1 28 29
M  V30 29 1 6 30
M  V30 30 2 30 31
M  V30 31 1 31 3
M  V30 32 1 29 7
M  V30 33 1 24 11
M  V30 34 1 21 16
M  V30 35 1 1 32
M  V30 36 1 1 33
M  V30 37 1 1 34
M  V30 38 1 4 35
M  V30 39 1 5 36
M  V30 40 1 8 37
M  V30 41 1 8 38
M  V30 42 1 9 39
M  V30 43 1 9 40
M  V30 44 1 17 41
M  V30 45 1 18 42
M  V30 46 1 19 43
M  V30 47 1 20 44
M  V30 48 1 21 45
M  V30 49 1 23 46
M  V30 50 1 23 47
M  V30 51 1 23 48
M  V30 52 1 26 49
M  V30 53 1 26 50
M  V30 54 1 26 51
M  V30 55 1 28 52
M  V30 56 1 28 53
M  V30 57 1 29 54
M  V30 58 1 29 55
M  V30 59 1 30 56
M  V30 60 1 31 57
M  V30 END BOND
M  V30 END CTAB
M  END
>  <Dataset>  (922) 
ChEMBL_Kinases

>  <Ligand_Instance>  (922) 
nan

>  <PDB_ID>  (922) 
nan

>  <Standardized_SMILES>  (922) 
COc1ccc(N2CCN(c3nc(=S)n(-c4ccccc4)c(C)c3C(C)=O)CC2)cc1

>  <Name>  (922) 
nan

>  <Pocket>  (922) 
nan

>  <ATP_Site>  (922) 
nan

>  <Peripheral>  (922) 
nan

>  <Num_H_Atoms_ProtBoundConf>  (922) 
nan

>  <Num_Resolved_Atoms>  (922) 
nan

>  <Num_Not_Resolved_Atoms>  (922) 
nan

$$$$
CHEMBL1495335
     RDKit          3D

  0  0  0  0  0  0  0  0  0  0999 V3000
M  V30 BEGIN CTAB
M  V30 COUNTS 44 46 0 0 0
M  V30 BEGIN ATOM
M  V30 1 O -2.776101 1.096646 1.999908 0
M  V30 2 C -3.162018 0.029259 1.436684 0
M  V30 3 C -2.136243 -0.911726 1.006890 0
M  V30 4 C -0.884876 -0.766429 0.702879 0
M  V30 5 C -0.012946 -1.883873 0.284868 0
M  V30 6 C 1.237113 -1.556198 -0.002172 0
M  V30 7 C 2.077876 -2.652360 -0.403880 0
M  V30 8 C 3.351880 -2.406533 -0.698416 0
M  V30 9 N 4.431057 -3.228514 -1.115094 0
M  V30 10 C 5.203384 -2.953880 -2.268580 0
M  V30 11 C 6.171395 -1.998666 -2.092974 0
M  V30 12 C 7.075238 -1.554072 -3.071774 0
M  V30 13 C 6.881904 -2.205713 -4.284345 0
M  V30 14 C 5.953922 -3.173116 -4.585843 0
M  V30 15 C 5.144574 -3.498691 -3.523839 0
M  V30 16 S -3.046029 -2.481635 0.940601 0
M  V30 17 C -4.617862 -1.670769 0.498408 0
M  V30 18 S -5.841341 -2.231265 -0.399882 0
M  V30 19 N -4.505080 -0.393701 1.154433 0
M  V30 20 C -5.623561 0.463442 1.544015 0
M  V30 21 C -5.995533 1.447368 0.522365 0
M  V30 22 C -6.930569 1.259517 -0.476777 0
M  V30 23 C -7.283547 2.201174 -1.450522 0
M  V30 24 C -6.616647 3.421730 -1.380455 0
M  V30 25 C -5.686852 3.605947 -0.386239 0
M  V30 26 C -5.353392 2.669553 0.563246 0
M  V30 27 H -0.537608 0.269014 0.783816 0
M  V30 28 H -0.475946 -2.857166 0.275037 0
M  V30 29 H 1.613515 -0.558582 0.056698 0
M  V30 30 H 1.879050 -3.696003 -0.547428 0
M  V30 31 H 3.751132 -1.382146 -0.638850 0
M  V30 32 H 4.602773 -4.044920 -0.500473 0
M  V30 33 H 6.313714 -1.489238 -1.127407 0
M  V30 34 H 7.827620 -0.807063 -2.920605 0
M  V30 35 H 7.575535 -1.886893 -5.077322 0
M  V30 36 H 5.834486 -3.651145 -5.533108 0
M  V30 37 H 4.354899 -4.262705 -3.633759 0
M  V30 38 H -6.516972 -0.150355 1.805791 0
M  V30 39 H -5.389913 1.017570 2.480660 0
M  V30 40 H -7.435251 0.293529 -0.506291 0
M  V30 41 H -8.030851 1.966423 -2.197553 0
M  V30 42 H -6.884961 4.147884 -2.122503 0
M  V30 43 H -5.209723 4.596085 -0.406035 0
M  V30 44 H -4.600595 2.997172 1.262890 0
M  V30 END ATOM
M  V30 BEGIN BOND
M  V30 1 2 1 2
M  V30 2 1 2 3
M  V30 3 2 3 4
M  V30 4 1 4 5
M  V30 5 2 5 6
M  V30 6 1 6 7
M  V30 7 2 7 8
M  V30 8 1 8 9
M  V30 9 1 9 10
M  V30 10 2 10 11
M  V30 11 1 11 12
M  V30 12 2 12 13
M  V30 13 1 13 14
M  V30 14 2 14 15
M  V30 15 1 3 16
M  V30 16 1 16 17
M  V30 17 2 17 18
M  V30 18 1 17 19
M  V30 19 1 19 20
M  V30 20 1 20 21
M  V30 21 2 21 22
M  V30 22 1 22 23
M  V30 23 2 23 24
M  V30 24 1 24 25
M  V30 25 2 25 26
M  V30 26 1 19 2
M  V30 27 1 26 21
M  V30 28 1 15 10
M  V30 29 1 4 27
M  V30 30 1 5 28
M  V30 31 1 6 29
M  V30 32 1 7 30
M  V30 33 1 8 31
M  V30 34 1 9 32
M  V30 35 1 11 33
M  V30 36 1 12 34
M  V30 37 1 13 35
M  V30 38 1 14 36
M  V30 39 1 15 37
M  V30 40 1 20 38
M  V30 41 1 20 39
M  V30 42 1 22 40
M  V30 43 1 23 41
M  V30 44 1 24 42
M  V30 45 1 25 43
M  V30 46 1 26 44
M  V30 END BOND
M  V30 END CTAB
M  END
>  <Dataset>  (923) 
ChEMBL_Kinases

>  <Ligand_Instance>  (923) 
nan

>  <PDB_ID>  (923) 
nan

>  <Standardized_SMILES>  (923) 
O=C1/C(=C/C=C/C=C/Nc2ccccc2)SC(=S)N1Cc1ccccc1

>  <Name>  (923) 
nan

>  <Pocket>  (923) 
nan

>  <ATP_Site>  (923) 
nan

>  <Peripheral>  (923) 
nan

>  <Num_H_Atoms_ProtBoundConf>  (923) 
nan

>  <Num_Resolved_Atoms>  (923) 
nan

>  <Num_Not_Resolved_Atoms>  (923) 
nan

$$$$
CHEMBL1495595
     RDKit          3D

  0  0  0  0  0  0  0  0  0  0999 V3000
M  V30 BEGIN CTAB
M  V30 COUNTS 38 41 0 0 0
M  V30 BEGIN ATOM
M  V30 1 Cl -1.777714 -3.488337 5.368244 0
M  V30 2 C -0.169331 -3.188114 4.686669 0
M  V30 3 C 0.842415 -4.070892 5.057395 0
M  V30 4 C 2.141090 -3.937266 4.588952 0
M  V30 5 C 2.400736 -2.874803 3.723290 0
M  V30 6 C 1.398767 -2.006226 3.360439 0
M  V30 7 C 1.611442 -0.870376 2.451711 0
M  V30 8 C 2.853003 -0.229065 2.444261 0
M  V30 9 C 3.015344 0.832405 1.576931 0
M  V30 10 C 2.015560 1.273807 0.734229 0
M  V30 11 N 2.165177 2.308231 -0.115744 0
M  V30 12 C 1.165144 2.699625 -0.914928 0
M  V30 13 N -0.006109 2.044867 -0.863518 0
M  V30 14 C -0.255339 1.002744 -0.051909 0
M  V30 15 N -1.535498 0.384939 -0.081706 0
M  V30 16 C -2.552713 0.889032 -0.989031 0
M  V30 17 C -2.097873 0.793752 -2.362462 0
M  V30 18 C -2.308855 -0.302067 -3.133825 0
M  V30 19 C -1.939607 -0.490019 -4.403336 0
M  V30 20 C -1.252955 0.659988 -4.898068 0
M  V30 21 S -1.228434 1.850957 -3.485412 0
M  V30 22 C 0.800676 0.633301 0.753046 0
M  V30 23 C 0.623967 -0.416666 1.603694 0
M  V30 24 C 0.101626 -2.130935 3.821742 0
M  V30 25 H 0.608011 -4.895979 5.739302 0
M  V30 26 H 2.906323 -4.637968 4.893634 0
M  V30 27 H 3.401690 -2.728932 3.330299 0
M  V30 28 H 3.656842 -0.527163 3.071268 0
M  V30 29 H 3.940089 1.387762 1.501611 0
M  V30 30 H 1.275767 3.539038 -1.609039 0
M  V30 31 H -1.833089 -0.423373 0.501500 0
M  V30 32 H -3.536949 0.468113 -0.792928 0
M  V30 33 H -2.610832 1.996524 -0.756972 0
M  V30 34 H -2.808406 -1.244250 -2.904027 0
M  V30 35 H -1.850723 -1.026274 -5.319502 0
M  V30 36 H -0.637579 1.384823 -5.722133 0
M  V30 37 H -0.296345 -0.957157 1.666524 0
M  V30 38 H -0.750596 -1.525181 3.611977 0
M  V30 END ATOM
M  V30 BEGIN BOND
M  V30 1 1 1 2
M  V30 2 2 2 3
M  V30 3 1 3 4
M  V30 4 2 4 5
M  V30 5 1 5 6
M  V30 6 1 6 7
M  V30 7 2 7 8
M  V30 8 1 8 9
M  V30 9 2 9 10
M  V30 10 1 10 11
M  V30 11 2 11 12
M  V30 12 1 12 13
M  V30 13 2 13 14
M  V30 14 1 14 15
M  V30 15 1 15 16
M  V30 16 1 16 17
M  V30 17 2 17 18
M  V30 18 1 18 19
M  V30 19 2 19 20
M  V30 20 1 20 21
M  V30 21 1 14 22
M  V30 22 2 22 23
M  V30 23 2 6 24
M  V30 24 1 24 2
M  V30 25 1 23 7
M  V30 26 1 22 10
M  V30 27 1 21 17
M  V30 28 1 3 25
M  V30 29 1 4 26
M  V30 30 1 5 27
M  V30 31 1 8 28
M  V30 32 1 9 29
M  V30 33 1 12 30
M  V30 34 1 15 31
M  V30 35 1 16 32
M  V30 36 1 16 33
M  V30 37 1 18 34
M  V30 38 1 19 35
M  V30 39 1 20 36
M  V30 40 1 23 37
M  V30 41 1 24 38
M  V30 END BOND
M  V30 END CTAB
M  END
>  <Dataset>  (924) 
ChEMBL_Kinases

>  <Ligand_Instance>  (924) 
nan

>  <PDB_ID>  (924) 
nan

>  <Standardized_SMILES>  (924) 
Clc1cccc(-c2ccc3ncnc(NCc4cccs4)c3c2)c1

>  <Name>  (924) 
nan

>  <Pocket>  (924) 
nan

>  <ATP_Site>  (924) 
nan

>  <Peripheral>  (924) 
nan

>  <Num_H_Atoms_ProtBoundConf>  (924) 
nan

>  <Num_Resolved_Atoms>  (924) 
nan

>  <Num_Not_Resolved_Atoms>  (924) 
nan

$$$$
CHEMBL1495725
     RDKit          3D

  0  0  0  0  0  0  0  0  0  0999 V3000
M  V30 BEGIN CTAB
M  V30 COUNTS 33 35 0 0 0
M  V30 BEGIN ATOM
M  V30 1 O 0.731153 0.887016 2.857397 0
M  V30 2 C 1.354843 0.198776 1.976255 0
M  V30 3 C 2.369266 -0.562776 2.726692 0
M  V30 4 S 3.317617 -1.588151 1.571348 0
M  V30 5 C 2.237904 -2.835220 0.895603 0
M  V30 6 N 3.007468 -3.455187 0.111014 0
M  V30 7 C 2.515633 -4.528231 -0.618828 0
M  V30 8 C 1.023067 -4.429998 -0.847919 0
M  V30 9 S 0.608926 -3.639526 0.769694 0
M  V30 10 N 0.986745 0.293751 0.592261 0
M  V30 11 C -0.087653 1.195877 0.361917 0
M  V30 12 C 0.353602 2.495576 0.127676 0
M  V30 13 C -0.557736 3.497391 -0.115904 0
M  V30 14 N -1.887365 3.219617 -0.127942 0
M  V30 15 C -2.332886 1.967476 0.096614 0
M  V30 16 C -3.693805 1.645817 0.091445 0
M  V30 17 C -4.077965 0.322275 0.333140 0
M  V30 18 C -3.139591 -0.659046 0.574099 0
M  V30 19 C -1.783632 -0.380429 0.587442 0
M  V30 20 C -1.446838 0.950153 0.341967 0
M  V30 21 H 1.819525 -1.288622 3.393938 0
M  V30 22 H 3.024102 0.095026 3.332039 0
M  V30 23 H 2.977226 -4.615363 -1.635397 0
M  V30 24 H 2.750364 -5.457444 -0.045086 0
M  V30 25 H 0.755829 -3.752290 -1.655334 0
M  V30 26 H 0.511449 -5.407389 -0.856393 0
M  V30 27 H 1.608843 -0.338644 0.056955 0
M  V30 28 H 1.388862 2.869564 0.106028 0
M  V30 29 H -0.288208 4.543007 -0.308143 0
M  V30 30 H -4.387609 2.448933 -0.101789 0
M  V30 31 H -5.164255 0.147464 0.312392 0
M  V30 32 H -3.508459 -1.680103 0.756959 0
M  V30 33 H -1.045442 -1.141372 0.774965 0
M  V30 END ATOM
M  V30 BEGIN BOND
M  V30 1 2 1 2
M  V30 2 1 2 3
M  V30 3 1 3 4
M  V30 4 1 4 5
M  V30 5 2 5 6
M  V30 6 1 6 7
M  V30 7 1 7 8
M  V30 8 1 8 9
M  V30 9 1 2 10
M  V30 10 1 10 11
M  V30 11 2 11 12
M  V30 12 1 12 13
M  V30 13 2 13 14
M  V30 14 1 14 15
M  V30 15 2 15 16
M  V30 16 1 16 17
M  V30 17 2 17 18
M  V30 18 1 18 19
M  V30 19 2 19 20
M  V30 20 1 9 5
M  V30 21 1 20 11
M  V30 22 1 20 15
M  V30 23 1 3 21
M  V30 24 1 3 22
M  V30 25 1 7 23
M  V30 26 1 7 24
M  V30 27 1 8 25
M  V30 28 1 8 26
M  V30 29 1 10 27
M  V30 30 1 12 28
M  V30 31 1 13 29
M  V30 32 1 16 30
M  V30 33 1 17 31
M  V30 34 1 18 32
M  V30 35 1 19 33
M  V30 END BOND
M  V30 END CTAB
M  END
>  <Dataset>  (925) 
ChEMBL_Kinases

>  <Ligand_Instance>  (925) 
nan

>  <PDB_ID>  (925) 
nan

>  <Standardized_SMILES>  (925) 
O=C(CSC1=NCCS1)Nc1ccnc2ccccc12

>  <Name>  (925) 
nan

>  <Pocket>  (925) 
nan

>  <ATP_Site>  (925) 
nan

>  <Peripheral>  (925) 
nan

>  <Num_H_Atoms_ProtBoundConf>  (925) 
nan

>  <Num_Resolved_Atoms>  (925) 
nan

>  <Num_Not_Resolved_Atoms>  (925) 
nan

$$$$
CHEMBL1495730
     RDKit          3D

  0  0  0  0  0  0  0  0  0  0999 V3000
M  V30 BEGIN CTAB
M  V30 COUNTS 57 61 0 0 0
M  V30 BEGIN ATOM
M  V30 1 C 6.364510 -2.690403 4.462844 0
M  V30 2 O 4.991077 -2.656366 4.140287 0
M  V30 3 C 4.626380 -2.152714 2.896385 0
M  V30 4 C 5.429256 -1.655678 1.876433 0
M  V30 5 C 4.837943 -1.204198 0.716760 0
M  V30 6 C 3.475074 -1.222286 0.519097 0
M  V30 7 C 2.986695 -0.703909 -0.777257 0
M  V30 8 N 2.691026 0.705142 -0.774476 0
M  V30 9 N 3.463959 1.744087 -1.049626 0
M  V30 10 N 2.789674 2.880762 -0.926105 0
M  V30 11 C 1.524864 2.608538 -0.557714 0
M  V30 12 C 0.360883 3.287757 -0.273550 0
M  V30 13 O 0.390969 4.662395 -0.360098 0
M  V30 14 N -0.762518 2.627164 0.076034 0
M  V30 15 C -0.808872 1.288595 0.165353 0
M  V30 16 C -2.003281 0.482041 0.532023 0
M  V30 17 C -2.546447 0.954608 1.835597 0
M  V30 18 C -3.960974 0.582521 2.123664 0
M  V30 19 C -4.820158 0.352978 0.904472 0
M  V30 20 N -4.098393 -0.362845 -0.126656 0
M  V30 21 C -4.552900 -1.668247 -0.451067 0
M  V30 22 O -5.551045 -1.912833 0.289445 0
M  V30 23 C -4.045398 -2.621527 -1.424336 0
M  V30 24 C -2.695310 -2.886001 -1.550918 0
M  V30 25 C -2.154148 -3.769050 -2.442288 0
M  V30 26 C -2.986704 -4.463476 -3.292843 0
M  V30 27 C -4.354297 -4.227903 -3.199692 0
M  V30 28 C -4.868432 -3.328643 -2.286025 0
M  V30 29 C -3.021195 0.485615 -0.599347 0
M  V30 30 N 0.332149 0.643253 -0.114487 0
M  V30 31 C 1.487972 1.227725 -0.468847 0
M  V30 32 C 2.674017 -1.714000 1.526496 0
M  V30 33 C 3.262136 -2.169796 2.695866 0
M  V30 34 H 6.714720 -1.690647 4.762857 0
M  V30 35 H 6.550694 -3.402171 5.298287 0
M  V30 36 H 6.983170 -3.008490 3.589627 0
M  V30 37 H 6.481233 -1.678042 2.124037 0
M  V30 38 H 5.556328 -0.833833 -0.024934 0
M  V30 39 H 2.069742 -1.291783 -1.039431 0
M  V30 40 H 3.760520 -0.918197 -1.564515 0
M  V30 41 H 1.005814 5.213216 0.230301 0
M  V30 42 H -1.727276 -0.607570 0.644213 0
M  V30 43 H -2.349954 2.053332 2.010107 0
M  V30 44 H -1.903070 0.465868 2.625714 0
M  V30 45 H -4.416499 1.435403 2.685616 0
M  V30 46 H -3.999564 -0.334522 2.724778 0
M  V30 47 H -5.159397 1.345849 0.492979 0
M  V30 48 H -5.719679 -0.181791 1.223999 0
M  V30 49 H -1.960791 -2.391236 -0.927310 0
M  V30 50 H -1.077338 -3.960114 -2.518451 0
M  V30 51 H -2.582568 -5.167591 -4.004378 0
M  V30 52 H -4.954874 -4.805636 -3.891467 0
M  V30 53 H -5.938947 -3.183434 -2.256516 0
M  V30 54 H -2.495021 0.035188 -1.469230 0
M  V30 55 H -3.372901 1.506754 -0.844208 0
M  V30 56 H 1.609401 -1.713456 1.335701 0
M  V30 57 H 2.529759 -2.524156 3.397894 0
M  V30 END ATOM
M  V30 BEGIN BOND
M  V30 1 1 1 2
M  V30 2 1 2 3
M  V30 3 2 3 4
M  V30 4 1 4 5
M  V30 5 2 5 6
M  V30 6 1 6 7
M  V30 7 1 7 8
M  V30 8 1 8 9
M  V30 9 2 9 10
M  V30 10 1 10 11
M  V30 11 2 11 12
M  V30 12 1 12 13
M  V30 13 1 12 14
M  V30 14 2 14 15
M  V30 15 1 15 16
M  V30 16 1 16 17
M  V30 17 1 17 18
M  V30 18 1 18 19
M  V30 19 1 19 20
M  V30 20 1 20 21
M  V30 21 2 21 22
M  V30 22 1 21 23
M  V30 23 2 23 24
M  V30 24 1 24 25
M  V30 25 2 25 26
M  V30 26 1 26 27
M  V30 27 2 27 28
M  V30 28 1 20 29
M  V30 29 1 15 30
M  V30 30 2 30 31
M  V30 31 1 6 32
M  V30 32 2 32 33
M  V30 33 1 33 3
M  V30 34 1 31 8
M  V30 35 1 31 11
M  V30 36 1 29 16
M  V30 37 1 28 23
M  V30 38 1 1 34
M  V30 39 1 1 35
M  V30 40 1 1 36
M  V30 41 1 4 37
M  V30 42 1 5 38
M  V30 43 1 7 39
M  V30 44 1 7 40
M  V30 45 1 13 41
M  V30 46 1 16 42
M  V30 47 1 17 43
M  V30 48 1 17 44
M  V30 49 1 18 45
M  V30 50 1 18 46
M  V30 51 1 19 47
M  V30 52 1 19 48
M  V30 53 1 24 49
M  V30 54 1 25 50
M  V30 55 1 26 51
M  V30 56 1 27 52
M  V30 57 1 28 53
M  V30 58 1 29 54
M  V30 59 1 29 55
M  V30 60 1 32 56
M  V30 61 1 33 57
M  V30 END BOND
M  V30 END CTAB
M  END
>  <Dataset>  (926) 
ChEMBL_Kinases

>  <Ligand_Instance>  (926) 
nan

>  <PDB_ID>  (926) 
nan

>  <Standardized_SMILES>  (926) 
COc1ccc(Cn2nnc3c(O)nc(C4CCCN(C(=O)c5ccccc5)C4)nc32)cc1

>  <Name>  (926) 
nan

>  <Pocket>  (926) 
nan

>  <ATP_Site>  (926) 
nan

>  <Peripheral>  (926) 
nan

>  <Num_H_Atoms_ProtBoundConf>  (926) 
nan

>  <Num_Resolved_Atoms>  (926) 
nan

>  <Num_Not_Resolved_Atoms>  (926) 
nan

$$$$
CHEMBL1495741
     RDKit          3D

  0  0  0  0  0  0  0  0  0  0999 V3000
M  V30 BEGIN CTAB
M  V30 COUNTS 48 51 0 0 0
M  V30 BEGIN ATOM
M  V30 1 C -4.128026 -2.712289 1.742568 0
M  V30 2 N -2.876133 -1.996781 1.442123 0
M  V30 3 C -1.870844 -2.987992 1.249663 0
M  V30 4 C -0.701000 -2.509023 0.383772 0
M  V30 5 C -0.729272 -1.001105 0.421960 0
M  V30 6 C 0.539302 -0.491502 -0.218289 0
M  V30 7 O 0.566581 -0.958835 -1.514089 0
M  V30 8 C 0.606948 1.003254 -0.168103 0
M  V30 9 C 0.592072 1.588681 -1.424834 0
M  V30 10 C 0.645461 2.949523 -1.651066 0
M  V30 11 C 0.718753 3.797480 -0.564945 0
M  V30 12 C 0.733195 3.209850 0.685883 0
M  V30 13 C 0.679482 1.829905 0.931170 0
M  V30 14 C 0.708153 1.543917 2.363178 0
M  V30 15 C 1.570204 0.435524 2.818803 0
M  V30 16 C 2.002047 -0.553932 1.844429 0
M  V30 17 C 3.104468 -1.203083 2.419445 0
M  V30 18 C 3.813229 -2.210149 1.832042 0
M  V30 19 C 3.447291 -2.647953 0.581062 0
M  V30 20 C 2.369084 -2.038606 -0.022639 0
M  V30 21 C 1.664948 -1.018435 0.592550 0
M  V30 22 C -1.963167 -0.538632 -0.313374 0
M  V30 23 C -3.167925 -1.232875 0.245580 0
M  V30 24 H -5.014601 -2.151061 1.325892 0
M  V30 25 H -4.297337 -2.818813 2.825565 0
M  V30 26 H -4.152528 -3.688999 1.208867 0
M  V30 27 H -2.257945 -3.979170 0.887817 0
M  V30 28 H -1.411054 -3.196733 2.260058 0
M  V30 29 H 0.227777 -2.963754 0.727873 0
M  V30 30 H -0.971653 -2.827527 -0.657166 0
M  V30 31 H -0.809445 -0.676723 1.467735 0
M  V30 32 H 1.406242 -0.791758 -1.999982 0
M  V30 33 H 0.533698 0.996278 -2.329771 0
M  V30 34 H 0.632121 3.377002 -2.643074 0
M  V30 35 H 0.764663 4.878095 -0.636120 0
M  V30 36 H 0.791316 3.878746 1.553299 0
M  V30 37 H 0.937776 2.499253 2.924790 0
M  V30 38 H -0.356801 1.333410 2.680667 0
M  V30 39 H 1.115829 -0.071659 3.724288 0
M  V30 40 H 2.500700 0.909188 3.258824 0
M  V30 41 H 3.489277 -0.938150 3.418050 0
M  V30 42 H 4.660616 -2.696198 2.294874 0
M  V30 43 H 3.983336 -3.433593 0.098090 0
M  V30 44 H 2.099831 -2.395301 -0.993138 0
M  V30 45 H -2.072457 0.573280 -0.261442 0
M  V30 46 H -1.848448 -0.828513 -1.375062 0
M  V30 47 H -3.912693 -0.458640 0.529627 0
M  V30 48 H -3.619046 -1.952813 -0.472726 0
M  V30 END ATOM
M  V30 BEGIN BOND
M  V30 1 1 1 2
M  V30 2 1 2 3
M  V30 3 1 3 4
M  V30 4 1 4 5
M  V30 5 1 5 6
M  V30 6 1 6 7
M  V30 7 1 6 8
M  V30 8 2 8 9
M  V30 9 1 9 10
M  V30 10 2 10 11
M  V30 11 1 11 12
M  V30 12 2 12 13
M  V30 13 1 13 14
M  V30 14 1 14 15
M  V30 15 1 15 16
M  V30 16 2 16 17
M  V30 17 1 17 18
M  V30 18 2 18 19
M  V30 19 1 19 20
M  V30 20 2 20 21
M  V30 21 1 5 22
M  V30 22 1 22 23
M  V30 23 1 23 2
M  V30 24 1 21 6
M  V30 25 1 13 8
M  V30 26 1 21 16
M  V30 27 1 1 24
M  V30 28 1 1 25
M  V30 29 1 1 26
M  V30 30 1 3 27
M  V30 31 1 3 28
M  V30 32 1 4 29
M  V30 33 1 4 30
M  V30 34 1 5 31
M  V30 35 1 7 32
M  V30 36 1 9 33
M  V30 37 1 10 34
M  V30 38 1 11 35
M  V30 39 1 12 36
M  V30 40 1 14 37
M  V30 41 1 14 38
M  V30 42 1 15 39
M  V30 43 1 15 40
M  V30 44 1 17 41
M  V30 45 1 18 42
M  V30 46 1 19 43
M  V30 47 1 20 44
M  V30 48 1 22 45
M  V30 49 1 22 46
M  V30 50 1 23 47
M  V30 51 1 23 48
M  V30 END BOND
M  V30 END CTAB
M  END
>  <Dataset>  (927) 
ChEMBL_Kinases

>  <Ligand_Instance>  (927) 
nan

>  <PDB_ID>  (927) 
nan

>  <Standardized_SMILES>  (927) 
CN1CCC(C2(O)c3ccccc3CCc3ccccc32)CC1

>  <Name>  (927) 
nan

>  <Pocket>  (927) 
nan

>  <ATP_Site>  (927) 
nan

>  <Peripheral>  (927) 
nan

>  <Num_H_Atoms_ProtBoundConf>  (927) 
nan

>  <Num_Resolved_Atoms>  (927) 
nan

>  <Num_Not_Resolved_Atoms>  (927) 
nan

$$$$
CHEMBL1495827
     RDKit          3D

  0  0  0  0  0  0  0  0  0  0999 V3000
M  V30 BEGIN CTAB
M  V30 COUNTS 44 47 0 0 0
M  V30 BEGIN ATOM
M  V30 1 O -1.275805 -1.670393 1.986001 0
M  V30 2 C -0.451324 -0.868312 2.508830 0
M  V30 3 C 0.662850 -1.581663 3.113972 0
M  V30 4 C 1.728914 -2.029440 2.185900 0
M  V30 5 C 2.964718 -1.367363 2.317443 0
M  V30 6 C 4.118526 -1.589020 1.570002 0
M  V30 7 C 4.015353 -2.567737 0.602303 0
M  V30 8 C 2.825279 -3.246336 0.433517 0
M  V30 9 C 1.707104 -2.988617 1.202303 0
M  V30 10 N -0.751297 0.500457 2.410343 0
M  V30 11 C -1.856167 1.253024 1.894922 0
M  V30 12 C -1.518690 2.408569 1.014761 0
M  V30 13 C -0.153596 3.013265 1.216501 0
M  V30 14 C 0.871158 1.973074 1.598162 0
M  V30 15 C 0.866086 0.954512 0.480361 0
M  V30 16 N -0.153435 0.318156 -0.107893 0
M  V30 17 C 0.259860 -0.523169 -1.071642 0
M  V30 18 C -0.629817 -1.286947 -1.808000 0
M  V30 19 C -1.118703 -1.254630 -3.124864 0
M  V30 20 C -2.022218 -2.161684 -3.599692 0
M  V30 21 C -2.450761 -3.165117 -2.661315 0
M  V30 22 S -1.549251 -2.788838 -1.118206 0
M  V30 23 N 1.591593 -0.379438 -1.056290 0
M  V30 24 O 1.933562 0.489629 -0.142011 0
M  V30 25 C 0.331517 1.362091 2.888469 0
M  V30 26 H 0.314428 -2.538143 3.610308 0
M  V30 27 H 1.130808 -1.033368 3.972547 0
M  V30 28 H 3.085329 -0.582434 3.086469 0
M  V30 29 H 5.017324 -1.023945 1.757549 0
M  V30 30 H 4.907006 -2.752052 0.012933 0
M  V30 31 H 2.748888 -4.013509 -0.331975 0
M  V30 32 H 0.744498 -3.491808 1.108918 0
M  V30 33 H -2.545587 0.583711 1.365710 0
M  V30 34 H -2.433277 1.592246 2.804087 0
M  V30 35 H -2.255455 3.229577 1.248582 0
M  V30 36 H -1.705635 2.169882 -0.072138 0
M  V30 37 H 0.131498 3.540866 0.293284 0
M  V30 38 H -0.219563 3.813717 2.001374 0
M  V30 39 H 1.847934 2.435125 1.728577 0
M  V30 40 H -0.691188 -0.434813 -3.687961 0
M  V30 41 H -2.364521 -2.092890 -4.609188 0
M  V30 42 H -3.222276 -3.937042 -3.073883 0
M  V30 43 H 1.094654 0.874668 3.467325 0
M  V30 44 H -0.132437 2.185321 3.461191 0
M  V30 END ATOM
M  V30 BEGIN BOND
M  V30 1 2 1 2
M  V30 2 1 2 3
M  V30 3 1 3 4
M  V30 4 2 4 5
M  V30 5 1 5 6
M  V30 6 2 6 7
M  V30 7 1 7 8
M  V30 8 2 8 9
M  V30 9 1 2 10
M  V30 10 1 10 11
M  V30 11 1 11 12
M  V30 12 1 12 13
M  V30 13 1 13 14
M  V30 14 1 14 15
M  V30 15 2 15 16
M  V30 16 1 16 17
M  V30 17 1 17 18
M  V30 18 2 18 19
M  V30 19 1 19 20
M  V30 20 2 20 21
M  V30 21 1 21 22
M  V30 22 2 17 23
M  V30 23 1 23 24
M  V30 24 1 14 25
M  V30 25 1 9 4
M  V30 26 1 25 10
M  V30 27 1 24 15
M  V30 28 1 22 18
M  V30 29 1 3 26
M  V30 30 1 3 27
M  V30 31 1 5 28
M  V30 32 1 6 29
M  V30 33 1 7 30
M  V30 34 1 8 31
M  V30 35 1 9 32
M  V30 36 1 11 33
M  V30 37 1 11 34
M  V30 38 1 12 35
M  V30 39 1 12 36
M  V30 40 1 13 37
M  V30 41 1 13 38
M  V30 42 1 14 39
M  V30 43 1 19 40
M  V30 44 1 20 41
M  V30 45 1 21 42
M  V30 46 1 25 43
M  V30 47 1 25 44
M  V30 END BOND
M  V30 END CTAB
M  END
>  <Dataset>  (928) 
ChEMBL_Kinases

>  <Ligand_Instance>  (928) 
nan

>  <PDB_ID>  (928) 
nan

>  <Standardized_SMILES>  (928) 
O=C(Cc1ccccc1)N1CCCC(c2nc(-c3cccs3)no2)C1

>  <Name>  (928) 
nan

>  <Pocket>  (928) 
nan

>  <ATP_Site>  (928) 
nan

>  <Peripheral>  (928) 
nan

>  <Num_H_Atoms_ProtBoundConf>  (928) 
nan

>  <Num_Resolved_Atoms>  (928) 
nan

>  <Num_Not_Resolved_Atoms>  (928) 
nan

$$$$
CHEMBL1495847
     RDKit          3D

  0  0  0  0  0  0  0  0  0  0999 V3000
M  V30 BEGIN CTAB
M  V30 COUNTS 52 55 0 0 0
M  V30 BEGIN ATOM
M  V30 1 C 2.442377 0.988171 3.907553 0
M  V30 2 C 3.928806 1.035299 4.227719 0
M  V30 3 C 4.263292 -0.148094 5.057836 0
M  V30 4 C 5.261486 -1.094315 4.428839 0
M  V30 5 C 4.814481 -1.252493 2.991087 0
M  V30 6 N 5.095369 -0.016740 2.313197 0
M  V30 7 S 4.789480 -0.127985 0.634978 0
M  V30 8 O 5.186464 1.163056 -0.021966 0
M  V30 9 O 5.601794 -1.286799 0.115163 0
M  V30 10 C 3.118536 -0.481160 0.282446 0
M  V30 11 C 2.247659 0.578511 0.116722 0
M  V30 12 C 0.904764 0.409944 -0.164733 0
M  V30 13 C 0.380076 -0.876033 -0.292257 0
M  V30 14 C -1.009046 -1.213883 -0.585212 0
M  V30 15 O -1.406894 -2.403085 -0.685766 0
M  V30 16 N -1.991869 -0.204670 -0.773369 0
M  V30 17 C -3.328676 -0.602011 -1.056154 0
M  V30 18 N -4.077547 -0.768450 0.067453 0
M  V30 19 N -5.319402 -1.140441 -0.261210 0
M  V30 20 C -5.318493 -1.198976 -1.604050 0
M  V30 21 C -6.450022 -1.561698 -2.447210 0
M  V30 22 C -7.673086 -1.888756 -1.871168 0
M  V30 23 C -8.787975 -2.242725 -2.624381 0
M  V30 24 C -8.639672 -2.260161 -4.001309 0
M  V30 25 C -7.427612 -1.935896 -4.568580 0
M  V30 26 C -6.341562 -1.590190 -3.814421 0
M  V30 27 Cl -4.830952 -1.189635 -4.603567 0
M  V30 28 O -4.122934 -0.874487 -2.055865 0
M  V30 29 C 1.277603 -1.910784 -0.120662 0
M  V30 30 C 2.621658 -1.778391 0.160529 0
M  V30 31 C 4.668492 1.170296 2.934540 0
M  V30 32 H 2.019677 1.996638 3.700731 0
M  V30 33 H 1.859535 0.506237 4.724298 0
M  V30 34 H 2.251571 0.368091 3.008931 0
M  V30 35 H 4.058720 1.961949 4.853097 0
M  V30 36 H 3.357701 -0.740701 5.332553 0
M  V30 37 H 4.694414 0.159593 6.047601 0
M  V30 38 H 6.245918 -0.641736 4.549967 0
M  V30 39 H 5.162537 -2.070836 4.929413 0
M  V30 40 H 5.472207 -2.024353 2.537054 0
M  V30 41 H 3.753378 -1.519255 2.981521 0
M  V30 42 H 2.620998 1.606780 0.209101 0
M  V30 43 H 0.196759 1.217088 -0.300202 0
M  V30 44 H -1.760653 0.810464 -0.710107 0
M  V30 45 H -7.714907 -1.852844 -0.775274 0
M  V30 46 H -9.671365 -2.472090 -2.050173 0
M  V30 47 H -9.538784 -2.543260 -4.554758 0
M  V30 48 H -7.410527 -1.978652 -5.660783 0
M  V30 49 H 0.926657 -2.937614 -0.208410 0
M  V30 50 H 3.293424 -2.589309 0.288489 0
M  V30 51 H 4.077513 1.778119 2.217625 0
M  V30 52 H 5.592968 1.771730 3.176830 0
M  V30 END ATOM
M  V30 BEGIN BOND
M  V30 1 1 1 2
M  V30 2 1 2 3
M  V30 3 1 3 4
M  V30 4 1 4 5
M  V30 5 1 5 6
M  V30 6 1 6 7
M  V30 7 2 7 8
M  V30 8 2 7 9
M  V30 9 1 7 10
M  V30 10 2 10 11
M  V30 11 1 11 12
M  V30 12 2 12 13
M  V30 13 1 13 14
M  V30 14 2 14 15
M  V30 15 1 14 16
M  V30 16 1 16 17
M  V30 17 2 17 18
M  V30 18 1 18 19
M  V30 19 2 19 20
M  V30 20 1 20 21
M  V30 21 2 21 22
M  V30 22 1 22 23
M  V30 23 2 23 24
M  V30 24 1 24 25
M  V30 25 2 25 26
M  V30 26 1 26 27
M  V30 27 1 20 28
M  V30 28 1 13 29
M  V30 29 2 29 30
M  V30 30 1 6 31
M  V30 31 1 31 2
M  V30 32 1 30 10
M  V30 33 1 28 17
M  V30 34 1 26 21
M  V30 35 1 1 32
M  V30 36 1 1 33
M  V30 37 1 1 34
M  V30 38 1 2 35
M  V30 39 1 3 36
M  V30 40 1 3 37
M  V30 41 1 4 38
M  V30 42 1 4 39
M  V30 43 1 5 40
M  V30 44 1 5 41
M  V30 45 1 11 42
M  V30 46 1 12 43
M  V30 47 1 16 44
M  V30 48 1 22 45
M  V30 49 1 23 46
M  V30 50 1 24 47
M  V30 51 1 25 48
M  V30 52 1 29 49
M  V30 53 1 30 50
M  V30 54 1 31 51
M  V30 55 1 31 52
M  V30 END BOND
M  V30 END CTAB
M  END
>  <Dataset>  (929) 
ChEMBL_Kinases

>  <Ligand_Instance>  (929) 
nan

>  <PDB_ID>  (929) 
nan

>  <Standardized_SMILES>  (929) 
CC1CCCN(S(=O)(=O)c2ccc(C(=O)Nc3nnc(-c4ccccc4Cl)o3)cc2)C1

>  <Name>  (929) 
nan

>  <Pocket>  (929) 
nan

>  <ATP_Site>  (929) 
nan

>  <Peripheral>  (929) 
nan

>  <Num_H_Atoms_ProtBoundConf>  (929) 
nan

>  <Num_Resolved_Atoms>  (929) 
nan

>  <Num_Not_Resolved_Atoms>  (929) 
nan

$$$$
CHEMBL1495849
     RDKit          3D

  0  0  0  0  0  0  0  0  0  0999 V3000
M  V30 BEGIN CTAB
M  V30 COUNTS 27 28 0 0 0
M  V30 BEGIN ATOM
M  V30 1 C -0.377835 -4.161120 5.311482 0
M  V30 2 C -0.353341 -2.719345 5.714342 0
M  V30 3 S 1.207271 -1.922228 5.196381 0
M  V30 4 C 1.310083 -1.842235 3.389591 0
M  V30 5 N 1.704225 -2.496966 2.514335 0
M  V30 6 N 1.676673 -2.241577 1.251545 0
M  V30 7 C 1.194036 -1.201477 0.816960 0
M  V30 8 N 0.993628 -0.588494 -0.508435 0
M  V30 9 C 0.384242 0.663438 -0.659975 0
M  V30 10 O 0.015606 1.239163 0.397925 0
M  V30 11 C 0.215490 1.215391 -2.000068 0
M  V30 12 C -0.397290 2.459951 -2.062482 0
M  V30 13 C -0.573701 3.017066 -3.327198 0
M  V30 14 C -0.169227 2.388897 -4.498054 0
M  V30 15 C 0.439084 1.139416 -4.348980 0
M  V30 16 N 0.624182 0.570556 -3.120970 0
M  V30 17 S 0.664260 -0.374068 2.325617 0
M  V30 18 H 0.647175 -4.566072 5.236135 0
M  V30 19 H -0.872401 -4.790457 6.096088 0
M  V30 20 H -0.891825 -4.349597 4.361766 0
M  V30 21 H -1.187614 -2.224707 5.147004 0
M  V30 22 H -0.440914 -2.583835 6.790645 0
M  V30 23 H 1.348918 -1.187086 -1.253087 0
M  V30 24 H -0.736902 3.004651 -1.191230 0
M  V30 25 H -1.038568 3.967913 -3.416653 0
M  V30 26 H -0.317126 2.841751 -5.462379 0
M  V30 27 H 0.777532 0.596708 -5.222072 0
M  V30 END ATOM
M  V30 BEGIN BOND
M  V30 1 1 1 2
M  V30 2 1 2 3
M  V30 3 1 3 4
M  V30 4 2 4 5
M  V30 5 1 5 6
M  V30 6 2 6 7
M  V30 7 1 7 8
M  V30 8 1 8 9
M  V30 9 2 9 10
M  V30 10 1 9 11
M  V30 11 2 11 12
M  V30 12 1 12 13
M  V30 13 2 13 14
M  V30 14 1 14 15
M  V30 15 2 15 16
M  V30 16 1 7 17
M  V30 17 1 17 4
M  V30 18 1 16 11
M  V30 19 1 1 18
M  V30 20 1 1 19
M  V30 21 1 1 20
M  V30 22 1 2 21
M  V30 23 1 2 22
M  V30 24 1 8 23
M  V30 25 1 12 24
M  V30 26 1 13 25
M  V30 27 1 14 26
M  V30 28 1 15 27
M  V30 END BOND
M  V30 END CTAB
M  END
>  <Dataset>  (930) 
ChEMBL_Kinases

>  <Ligand_Instance>  (930) 
nan

>  <PDB_ID>  (930) 
nan

>  <Standardized_SMILES>  (930) 
CCSc1nnc(NC(=O)c2ccccn2)s1

>  <Name>  (930) 
nan

>  <Pocket>  (930) 
nan

>  <ATP_Site>  (930) 
nan

>  <Peripheral>  (930) 
nan

>  <Num_H_Atoms_ProtBoundConf>  (930) 
nan

>  <Num_Resolved_Atoms>  (930) 
nan

>  <Num_Not_Resolved_Atoms>  (930) 
nan

$$$$
CHEMBL1495290
     RDKit          3D

  0  0  0  0  0  0  0  0  0  0999 V3000
M  V30 BEGIN CTAB
M  V30 COUNTS 25 27 0 0 0
M  V30 BEGIN ATOM
M  V30 1 N -2.467014 -2.850434 2.304221 0
M  V30 2 C -1.171040 -2.334392 1.950567 0
M  V30 3 C -0.035897 -3.096029 2.237315 0
M  V30 4 C 1.253624 -2.664013 1.925468 0
M  V30 5 C 1.390617 -1.429267 1.308014 0
M  V30 6 O 2.617588 -1.057871 1.030794 0
M  V30 7 C 2.858901 0.092043 0.446993 0
M  V30 8 O 4.045534 0.457418 0.175843 0
M  V30 9 C 1.770946 0.879767 0.143780 0
M  V30 10 C 1.993405 2.101599 -0.473905 0
M  V30 11 C 0.934203 2.925731 -0.797225 0
M  V30 12 C -0.378419 2.551115 -0.511816 0
M  V30 13 C -0.601918 1.327604 0.106777 0
M  V30 14 C 0.462807 0.540341 0.411550 0
M  V30 15 C 0.273137 -0.674839 1.023444 0
M  V30 16 C -0.985352 -1.097214 1.328159 0
M  V30 17 H -2.725432 -2.203818 3.087086 0
M  V30 18 H -2.584826 -3.651512 1.619599 0
M  V30 19 H -0.109611 -4.050101 2.711924 0
M  V30 20 H 2.111654 -3.299490 2.171589 0
M  V30 21 H 2.989392 2.470717 -0.732189 0
M  V30 22 H 1.118651 3.880251 -1.280603 0
M  V30 23 H -1.150528 3.239094 -0.790362 0
M  V30 24 H -1.623880 1.126790 0.284337 0
M  V30 25 H -1.901093 -0.588125 1.148603 0
M  V30 END ATOM
M  V30 BEGIN BOND
M  V30 1 1 1 2
M  V30 2 2 2 3
M  V30 3 1 3 4
M  V30 4 2 4 5
M  V30 5 1 5 6
M  V30 6 1 6 7
M  V30 7 2 7 8
M  V30 8 1 7 9
M  V30 9 2 9 10
M  V30 10 1 10 11
M  V30 11 2 11 12
M  V30 12 1 12 13
M  V30 13 2 13 14
M  V30 14 1 14 15
M  V30 15 2 15 16
M  V30 16 1 16 2
M  V30 17 1 15 5
M  V30 18 1 14 9
M  V30 19 1 1 17
M  V30 20 1 1 18
M  V30 21 1 3 19
M  V30 22 1 4 20
M  V30 23 1 10 21
M  V30 24 1 11 22
M  V30 25 1 12 23
M  V30 26 1 13 24
M  V30 27 1 16 25
M  V30 END BOND
M  V30 END CTAB
M  END
>  <Dataset>  (931) 
ChEMBL_Kinases

>  <Ligand_Instance>  (931) 
nan

>  <PDB_ID>  (931) 
nan

>  <Standardized_SMILES>  (931) 
Nc1ccc2oc(=O)c3ccccc3c2c1

>  <Name>  (931) 
nan

>  <Pocket>  (931) 
nan

>  <ATP_Site>  (931) 
nan

>  <Peripheral>  (931) 
nan

>  <Num_H_Atoms_ProtBoundConf>  (931) 
nan

>  <Num_Resolved_Atoms>  (931) 
nan

>  <Num_Not_Resolved_Atoms>  (931) 
nan

$$$$
CHEMBL1515004
     RDKit          3D

  0  0  0  0  0  0  0  0  0  0999 V3000
M  V30 BEGIN CTAB
M  V30 COUNTS 59 64 0 0 0
M  V30 BEGIN ATOM
M  V30 1 C -5.909725 2.323924 -2.259093 0
M  V30 2 N -5.915000 1.499372 -3.428919 0
M  V30 3 C -5.791582 0.088644 -3.177082 0
M  V30 4 C -4.429770 -0.481298 -3.380822 0
M  V30 5 N -3.450647 0.557622 -3.554272 0
M  V30 6 C -2.262202 0.703391 -2.794166 0
M  V30 7 N -1.387035 1.718441 -3.052192 0
M  V30 8 C -0.256334 1.861540 -2.330936 0
M  V30 9 C 0.033660 0.973648 -1.311512 0
M  V30 10 N 1.167963 1.082327 -0.555372 0
M  V30 11 C 1.410951 0.192862 0.431276 0
M  V30 12 C 2.645775 0.367796 1.201799 0
M  V30 13 C 3.591844 -0.612075 1.419621 0
M  V30 14 N 4.610151 -0.135549 2.168311 0
M  V30 15 C 5.772752 -0.896478 2.585864 0
M  V30 16 C 4.332159 1.162939 2.444381 0
M  V30 17 C 5.013511 2.134324 3.164116 0
M  V30 18 C 4.467813 3.403995 3.275214 0
M  V30 19 C 3.246950 3.703928 2.670621 0
M  V30 20 C 2.542031 2.748232 1.942494 0
M  V30 21 C 3.130582 1.501796 1.863948 0
M  V30 22 C 0.506130 -0.825126 0.669369 0
M  V30 23 O 0.810892 -1.611346 1.610616 0
M  V30 24 N -0.627023 -0.951464 -0.070313 0
M  V30 25 C -1.528195 -2.044173 0.237947 0
M  V30 26 C -1.131239 -3.183620 -0.561136 0
M  V30 27 C -0.195587 -4.208536 -0.253282 0
M  V30 28 C -0.023968 -5.172842 -1.217323 0
M  V30 29 C -0.738125 -5.110005 -2.397907 0
M  V30 30 S -1.759578 -3.559839 -2.167853 0
M  V30 31 C -0.864803 -0.064608 -1.050192 0
M  V30 32 N -1.996760 -0.177137 -1.799794 0
M  V30 33 C -3.734019 1.521080 -4.601786 0
M  V30 34 C -5.152952 1.978534 -4.527256 0
M  V30 35 H -5.410181 3.279149 -2.490769 0
M  V30 36 H -5.506846 1.833375 -1.348453 0
M  V30 37 H -6.975236 2.581866 -2.033618 0
M  V30 38 H -6.198475 -0.177939 -2.180490 0
M  V30 39 H -6.479777 -0.433215 -3.906296 0
M  V30 40 H -4.371148 -1.180028 -4.252432 0
M  V30 41 H -4.179782 -1.123639 -2.494913 0
M  V30 42 H 0.427955 2.659153 -2.536151 0
M  V30 43 H 3.539036 -1.638447 1.043110 0
M  V30 44 H 5.468402 -1.607425 3.396887 0
M  V30 45 H 6.199888 -1.427406 1.704604 0
M  V30 46 H 6.543303 -0.243510 3.010912 0
M  V30 47 H 5.961832 1.869835 3.624602 0
M  V30 48 H 5.014596 4.160121 3.844734 0
M  V30 49 H 2.869710 4.700769 2.788135 0
M  V30 50 H 1.594345 2.968136 1.468260 0
M  V30 51 H -1.540940 -2.239272 1.322372 0
M  V30 52 H -2.547271 -1.721341 -0.078577 0
M  V30 53 H 0.306370 -4.159978 0.697166 0
M  V30 54 H 0.670314 -5.986772 -1.057543 0
M  V30 55 H -0.710964 -5.769344 -3.216925 0
M  V30 56 H -3.042687 2.406359 -4.513069 0
M  V30 57 H -3.560260 1.073017 -5.602684 0
M  V30 58 H -5.197962 3.105660 -4.474624 0
M  V30 59 H -5.716913 1.714683 -5.460842 0
M  V30 END ATOM
M  V30 BEGIN BOND
M  V30 1 1 1 2
M  V30 2 1 2 3
M  V30 3 1 3 4
M  V30 4 1 4 5
M  V30 5 1 5 6
M  V30 6 2 6 7
M  V30 7 1 7 8
M  V30 8 2 8 9
M  V30 9 1 9 10
M  V30 10 2 10 11
M  V30 11 1 11 12
M  V30 12 2 12 13
M  V30 13 1 13 14
M  V30 14 1 14 15
M  V30 15 1 14 16
M  V30 16 2 16 17
M  V30 17 1 17 18
M  V30 18 2 18 19
M  V30 19 1 19 20
M  V30 20 2 20 21
M  V30 21 1 11 22
M  V30 22 2 22 23
M  V30 23 1 22 24
M  V30 24 1 24 25
M  V30 25 1 25 26
M  V30 26 2 26 27
M  V30 27 1 27 28
M  V30 28 2 28 29
M  V30 29 1 29 30
M  V30 30 1 24 31
M  V30 31 2 31 32
M  V30 32 1 5 33
M  V30 33 1 33 34
M  V30 34 1 34 2
M  V30 35 1 32 6
M  V30 36 1 31 9
M  V30 37 1 21 12
M  V30 38 1 30 26
M  V30 39 1 21 16
M  V30 40 1 1 35
M  V30 41 1 1 36
M  V30 42 1 1 37
M  V30 43 1 3 38
M  V30 44 1 3 39
M  V30 45 1 4 40
M  V30 46 1 4 41
M  V30 47 1 8 42
M  V30 48 1 13 43
M  V30 49 1 15 44
M  V30 50 1 15 45
M  V30 51 1 15 46
M  V30 52 1 17 47
M  V30 53 1 18 48
M  V30 54 1 19 49
M  V30 55 1 20 50
M  V30 56 1 25 51
M  V30 57 1 25 52
M  V30 58 1 27 53
M  V30 59 1 28 54
M  V30 60 1 29 55
M  V30 61 1 33 56
M  V30 62 1 33 57
M  V30 63 1 34 58
M  V30 64 1 34 59
M  V30 END BOND
M  V30 END CTAB
M  END
>  <Dataset>  (932) 
ChEMBL_Kinases

>  <Ligand_Instance>  (932) 
nan

>  <PDB_ID>  (932) 
nan

>  <Standardized_SMILES>  (932) 
CN1CCN(c2ncc3nc(-c4cn(C)c5ccccc45)c(=O)n(Cc4cccs4)c3n2)CC1

>  <Name>  (932) 
nan

>  <Pocket>  (932) 
nan

>  <ATP_Site>  (932) 
nan

>  <Peripheral>  (932) 
nan

>  <Num_H_Atoms_ProtBoundConf>  (932) 
nan

>  <Num_Resolved_Atoms>  (932) 
nan

>  <Num_Not_Resolved_Atoms>  (932) 
nan

$$$$
CHEMBL1514670
     RDKit          3D

  0  0  0  0  0  0  0  0  0  0999 V3000
M  V30 BEGIN CTAB
M  V30 COUNTS 41 42 0 0 0
M  V30 BEGIN ATOM
M  V30 1 N 0.602001 -5.879151 0.623557 0
M  V30 2 C 0.267588 -4.514569 1.074037 0 CFG=2
M  V30 3 C 1.513676 -3.659717 1.089117 0
M  V30 4 C 1.159184 -2.294959 1.535727 0
M  V30 5 C 1.252452 -1.999795 2.876645 0
M  V30 6 C 0.917693 -0.722954 3.271652 0
M  V30 7 C 0.506596 0.223431 2.367987 0
M  V30 8 C 0.385033 0.021887 1.020666 0
M  V30 9 C 0.020315 0.779775 -0.153502 0
M  V30 10 C -0.999795 0.226771 -0.938807 0
M  V30 11 C -1.496756 0.757166 -2.109445 0
M  V30 12 C -0.904815 1.937205 -2.499523 0
M  V30 13 C 0.091963 2.520002 -1.772288 0
M  V30 14 C 0.578138 1.957696 -0.583667 0
M  V30 15 C 1.615858 2.712137 0.111821 0
M  V30 16 P 0.890812 3.820172 1.317578 0
M  V30 17 O 1.639543 3.884181 2.621167 0
M  V30 18 O 0.915718 5.406430 0.661381 0
M  V30 19 O -0.745906 3.515420 1.622478 0
M  V30 20 C 0.736363 -1.297847 0.656774 0
M  V30 21 C -0.367822 -4.657012 2.406447 0
M  V30 22 O -0.882342 -3.731007 3.125105 0
M  V30 23 O -0.846584 -5.228918 3.570294 0
M  V30 24 H 1.021513 -6.332366 1.492401 0
M  V30 25 H -0.350156 -6.338917 0.539799 0
M  V30 26 H -0.466119 -4.159490 0.315729 0
M  V30 27 H 1.832891 -3.584545 0.013700 0
M  V30 28 H 2.310767 -4.115437 1.711034 0
M  V30 29 H 1.560724 -2.650521 3.656350 0
M  V30 30 H 0.951623 -0.377103 4.296478 0
M  V30 31 H 0.232495 1.203227 2.660174 0
M  V30 32 H -1.478319 -0.712374 -0.638420 0
M  V30 33 H -2.287535 0.276339 -2.667132 0
M  V30 34 H -1.243489 2.414508 -3.412157 0
M  V30 35 H 0.508618 3.452941 -2.145944 0
M  V30 36 H 2.408581 2.059184 0.556424 0
M  V30 37 H 2.169381 3.316496 -0.631114 0
M  V30 38 H 0.112494 5.554728 0.086955 0
M  V30 39 H -1.025645 2.692202 1.137017 0
M  V30 40 H 0.712634 -1.684120 -0.377734 0
M  V30 41 H -0.266538 -5.887144 4.066320 0
M  V30 END ATOM
M  V30 BEGIN BOND
M  V30 1 1 1 2
M  V30 2 1 2 3
M  V30 3 1 3 4
M  V30 4 2 4 5
M  V30 5 1 5 6
M  V30 6 2 6 7
M  V30 7 1 7 8
M  V30 8 1 8 9
M  V30 9 2 9 10
M  V30 10 1 10 11
M  V30 11 2 11 12
M  V30 12 1 12 13
M  V30 13 2 13 14
M  V30 14 1 14 15
M  V30 15 1 15 16
M  V30 16 2 16 17
M  V30 17 1 16 18
M  V30 18 1 16 19
M  V30 19 2 8 20
M  V30 20 1 2 21
M  V30 21 2 21 22
M  V30 22 1 21 23
M  V30 23 1 20 4
M  V30 24 1 14 9
M  V30 25 1 1 24
M  V30 26 1 1 25
M  V30 27 1 2 26 CFG=3
M  V30 28 1 3 27
M  V30 29 1 3 28
M  V30 30 1 5 29
M  V30 31 1 6 30
M  V30 32 1 7 31
M  V30 33 1 10 32
M  V30 34 1 11 33
M  V30 35 1 12 34
M  V30 36 1 13 35
M  V30 37 1 15 36
M  V30 38 1 15 37
M  V30 39 1 18 38
M  V30 40 1 19 39
M  V30 41 1 20 40
M  V30 42 1 23 41
M  V30 END BOND
M  V30 END CTAB
M  END
>  <Dataset>  (933) 
ChEMBL_Kinases

>  <Ligand_Instance>  (933) 
nan

>  <PDB_ID>  (933) 
nan

>  <Standardized_SMILES>  (933) 
N[C@H](Cc1cccc(-c2ccccc2CP(=O)(O)O)c1)C(=O)O

>  <Name>  (933) 
nan

>  <Pocket>  (933) 
nan

>  <ATP_Site>  (933) 
nan

>  <Peripheral>  (933) 
nan

>  <Num_H_Atoms_ProtBoundConf>  (933) 
nan

>  <Num_Resolved_Atoms>  (933) 
nan

>  <Num_Not_Resolved_Atoms>  (933) 
nan

$$$$
CHEMBL1514607
     RDKit          3D

  0  0  0  0  0  0  0  0  0  0999 V3000
M  V30 BEGIN CTAB
M  V30 COUNTS 51 54 0 0 0
M  V30 BEGIN ATOM
M  V30 1 C 1.081633 -2.270823 3.884638 0
M  V30 2 S 2.737201 -2.914665 4.032043 0
M  V30 3 O 2.905426 -3.415097 5.431647 0
M  V30 4 O 2.818213 -4.050925 3.057322 0
M  V30 5 N 3.889678 -1.700629 3.752732 0
M  V30 6 C 4.130224 -0.920170 2.595589 0
M  V30 7 C 5.409185 -0.682394 2.097469 0
M  V30 8 C 5.714219 0.066168 0.981037 0
M  V30 9 C 4.661760 0.631748 0.293187 0
M  V30 10 C 3.362784 0.439515 0.728068 0
M  V30 11 C 2.261713 1.049690 -0.013885 0
M  V30 12 C 2.491427 2.271294 -0.651053 0
M  V30 13 C 1.450130 2.849741 -1.354763 0
M  V30 14 C 0.209698 2.255494 -1.439410 0
M  V30 15 N -0.826261 2.808426 -2.126187 0
M  V30 16 C -2.026279 2.165426 -2.168307 0
M  V30 17 N -2.215640 0.989730 -1.544346 0
M  V30 18 C -1.252375 0.396460 -0.859233 0
M  V30 19 N -1.512442 -0.847871 -0.223586 0
M  V30 20 C -2.840421 -1.411611 -0.349353 0
M  V30 21 C -3.922892 -0.574034 0.260911 0
M  V30 22 C -5.254937 -1.054165 -0.321292 0
M  V30 23 N -5.220746 -2.452595 -0.636060 0
M  V30 24 C -4.381974 -3.216564 0.261983 0
M  V30 25 C -2.940145 -2.808380 0.188488 0
M  V30 26 C -0.039358 1.048530 -0.817704 0
M  V30 27 C 1.003322 0.495683 -0.128464 0
M  V30 28 C 3.123460 -0.310884 1.839221 0
M  V30 29 H 1.141706 -1.196887 4.193796 0
M  V30 30 H 0.393259 -2.841344 4.551000 0
M  V30 31 H 0.744288 -2.269667 2.827848 0
M  V30 32 H 4.588141 -1.402111 4.498002 0
M  V30 33 H 6.237357 -1.125626 2.636102 0
M  V30 34 H 6.737168 0.196639 0.668707 0
M  V30 35 H 4.814250 1.231827 -0.590640 0
M  V30 36 H 3.438400 2.801733 -0.631667 0
M  V30 37 H 1.530273 3.789661 -1.878590 0
M  V30 38 H -2.869747 2.582907 -2.707978 0
M  V30 39 H -0.853886 -1.427090 0.338969 0
M  V30 40 H -3.087995 -1.465613 -1.452755 0
M  V30 41 H -4.001890 -0.723674 1.359861 0
M  V30 42 H -3.861567 0.498585 0.078175 0
M  V30 43 H -6.073531 -0.881141 0.403530 0
M  V30 44 H -5.463418 -0.496363 -1.267317 0
M  V30 45 H -4.884544 -2.622291 -1.608784 0
M  V30 46 H -4.795508 -3.144429 1.290121 0
M  V30 47 H -4.483342 -4.279792 -0.032265 0
M  V30 48 H -2.314208 -3.449962 -0.471068 0
M  V30 49 H -2.516610 -2.861970 1.223475 0
M  V30 50 H 0.897953 -0.443976 0.386670 0
M  V30 51 H 2.114552 -0.433224 2.138776 0
M  V30 END ATOM
M  V30 BEGIN BOND
M  V30 1 1 1 2
M  V30 2 2 2 3
M  V30 3 2 2 4
M  V30 4 1 2 5
M  V30 5 1 5 6
M  V30 6 2 6 7
M  V30 7 1 7 8
M  V30 8 2 8 9
M  V30 9 1 9 10
M  V30 10 1 10 11
M  V30 11 2 11 12
M  V30 12 1 12 13
M  V30 13 2 13 14
M  V30 14 1 14 15
M  V30 15 2 15 16
M  V30 16 1 16 17
M  V30 17 2 17 18
M  V30 18 1 18 19
M  V30 19 1 19 20
M  V30 20 1 20 21
M  V30 21 1 21 22
M  V30 22 1 22 23
M  V30 23 1 23 24
M  V30 24 1 24 25
M  V30 25 1 18 26
M  V30 26 2 26 27
M  V30 27 2 10 28
M  V30 28 1 28 6
M  V30 29 1 27 11
M  V30 30 1 26 14
M  V30 31 1 25 20
M  V30 32 1 1 29
M  V30 33 1 1 30
M  V30 34 1 1 31
M  V30 35 1 5 32
M  V30 36 1 7 33
M  V30 37 1 8 34
M  V30 38 1 9 35
M  V30 39 1 12 36
M  V30 40 1 13 37
M  V30 41 1 16 38
M  V30 42 1 19 39
M  V30 43 1 20 40
M  V30 44 1 21 41
M  V30 45 1 21 42
M  V30 46 1 22 43
M  V30 47 1 22 44
M  V30 48 1 23 45
M  V30 49 1 24 46
M  V30 50 1 24 47
M  V30 51 1 25 48
M  V30 52 1 25 49
M  V30 53 1 27 50
M  V30 54 1 28 51
M  V30 END BOND
M  V30 END CTAB
M  END
>  <Dataset>  (934) 
ChEMBL_Kinases

>  <Ligand_Instance>  (934) 
nan

>  <PDB_ID>  (934) 
nan

>  <Standardized_SMILES>  (934) 
CS(=O)(=O)Nc1cccc(-c2ccc3ncnc(NC4CCNCC4)c3c2)c1

>  <Name>  (934) 
nan

>  <Pocket>  (934) 
nan

>  <ATP_Site>  (934) 
nan

>  <Peripheral>  (934) 
nan

>  <Num_H_Atoms_ProtBoundConf>  (934) 
nan

>  <Num_Resolved_Atoms>  (934) 
nan

>  <Num_Not_Resolved_Atoms>  (934) 
nan

$$$$
CHEMBL1514486
     RDKit          3D

  0  0  0  0  0  0  0  0  0  0999 V3000
M  V30 BEGIN CTAB
M  V30 COUNTS 51 54 0 0 0
M  V30 BEGIN ATOM
M  V30 1 C 4.373299 -1.483556 4.158538 0
M  V30 2 C 4.054086 -1.681297 2.692722 0
M  V30 3 C 2.573125 -1.431209 2.478102 0 CFG=1
M  V30 4 O 1.921659 -2.369162 3.283662 0
M  V30 5 C 2.165702 -0.059727 2.971364 0
M  V30 6 C 2.170763 0.940296 1.806630 0
M  V30 7 O 3.294580 0.828050 1.017742 0
M  V30 8 C 0.989358 0.522775 0.988636 0
M  V30 9 C 1.022815 -0.813050 0.622836 0
M  V30 10 C -0.027631 -1.304229 -0.139096 0
M  V30 11 C -1.051901 -0.423470 -0.489600 0
M  V30 12 C -1.049517 0.913961 -0.102177 0
M  V30 13 C -0.009921 1.423045 0.658516 0
M  V30 14 O 0.044557 2.730427 1.068020 0
M  V30 15 C -2.142178 1.801945 -0.490964 0
M  V30 16 O -2.163034 3.017748 -0.152369 0
M  V30 17 C -3.263472 1.320553 -1.291889 0
M  V30 18 C -4.322980 2.124611 -1.685322 0
M  V30 19 O -4.248490 3.450235 -1.258741 0
M  V30 20 C -5.377534 1.657411 -2.442745 0
M  V30 21 C -5.378998 0.336904 -2.824741 0
M  V30 22 C -4.342154 -0.496081 -2.453040 0
M  V30 23 O -4.317555 -1.851237 -2.829650 0
M  V30 24 C -3.292862 -0.010354 -1.693375 0
M  V30 25 C -2.193691 -0.889971 -1.298331 0
M  V30 26 O -2.241289 -2.106239 -1.677472 0
M  V30 27 C 2.168725 -1.660485 1.054796 0
M  V30 28 C 1.814182 -3.100649 0.880780 0
M  V30 29 O 2.468596 -3.860630 0.135398 0
M  V30 30 O 0.727742 -3.608716 1.566035 0
M  V30 31 C 0.312447 -4.956727 1.467969 0
M  V30 32 H 4.939423 -0.538318 4.295775 0
M  V30 33 H 3.450072 -1.382128 4.780184 0
M  V30 34 H 5.023086 -2.295858 4.545990 0
M  V30 35 H 4.709870 -1.038671 2.108821 0
M  V30 36 H 4.216962 -2.752151 2.386370 0
M  V30 37 H 2.423878 -3.224857 3.174355 0
M  V30 38 H 1.120558 -0.144959 3.334553 0
M  V30 39 H 2.822950 0.286960 3.789014 0
M  V30 40 H 2.056614 1.947496 2.213007 0
M  V30 41 H 4.106986 1.187399 1.442754 0
M  V30 42 H -0.037244 -2.324997 -0.439385 0
M  V30 43 H 0.453722 3.461470 0.530881 0
M  V30 44 H -4.200052 4.199813 -1.946325 0
M  V30 45 H -6.152398 2.362090 -2.696811 0
M  V30 46 H -6.213251 -0.042654 -3.426808 0
M  V30 47 H -4.711840 -2.485701 -2.118170 0
M  V30 48 H 3.059229 -1.422230 0.411310 0
M  V30 49 H 0.158369 -5.178484 0.399843 0
M  V30 50 H 1.017757 -5.662980 1.950339 0
M  V30 51 H -0.675417 -5.039117 1.966730 0
M  V30 END ATOM
M  V30 BEGIN BOND
M  V30 1 1 1 2
M  V30 2 1 2 3
M  V30 3 1 3 4 CFG=1
M  V30 4 1 3 5
M  V30 5 1 5 6
M  V30 6 1 6 7
M  V30 7 1 6 8
M  V30 8 2 8 9
M  V30 9 1 9 10
M  V30 10 2 10 11
M  V30 11 1 11 12
M  V30 12 2 12 13
M  V30 13 1 13 14
M  V30 14 1 12 15
M  V30 15 2 15 16
M  V30 16 1 15 17
M  V30 17 2 17 18
M  V30 18 1 18 19
M  V30 19 1 18 20
M  V30 20 2 20 21
M  V30 21 1 21 22
M  V30 22 1 22 23
M  V30 23 2 22 24
M  V30 24 1 24 25
M  V30 25 2 25 26
M  V30 26 1 9 27
M  V30 27 1 27 28
M  V30 28 2 28 29
M  V30 29 1 28 30
M  V30 30 1 30 31
M  V30 31 1 27 3
M  V30 32 1 13 8
M  V30 33 1 24 17
M  V30 34 1 25 11
M  V30 35 1 1 32
M  V30 36 1 1 33
M  V30 37 1 1 34
M  V30 38 1 2 35
M  V30 39 1 2 36
M  V30 40 1 4 37
M  V30 41 1 5 38
M  V30 42 1 5 39
M  V30 43 1 6 40
M  V30 44 1 7 41
M  V30 45 1 10 42
M  V30 46 1 14 43
M  V30 47 1 19 44
M  V30 48 1 20 45
M  V30 49 1 21 46
M  V30 50 1 23 47
M  V30 51 1 27 48
M  V30 52 1 31 49
M  V30 53 1 31 50
M  V30 54 1 31 51
M  V30 END BOND
M  V30 END CTAB
M  END
>  <Dataset>  (935) 
ChEMBL_Kinases

>  <Ligand_Instance>  (935) 
nan

>  <PDB_ID>  (935) 
nan

>  <Standardized_SMILES>  (935) 
CC[C@@]1(O)CC(O)c2c(cc3c(c2O)C(=O)c2c(O)ccc(O)c2C3=O)C1C(=O)OC

>  <Name>  (935) 
nan

>  <Pocket>  (935) 
nan

>  <ATP_Site>  (935) 
nan

>  <Peripheral>  (935) 
nan

>  <Num_H_Atoms_ProtBoundConf>  (935) 
nan

>  <Num_Resolved_Atoms>  (935) 
nan

>  <Num_Not_Resolved_Atoms>  (935) 
nan

$$$$
CHEMBL1514375
     RDKit          3D

  0  0  0  0  0  0  0  0  0  0999 V3000
M  V30 BEGIN CTAB
M  V30 COUNTS 69 75 0 0 0
M  V30 BEGIN ATOM
M  V30 1 C 5.624717 -3.076975 3.811209 0
M  V30 2 O 5.551092 -2.049853 2.835023 0
M  V30 3 C 6.556422 -1.926168 1.874310 0
M  V30 4 C 7.670519 -2.742099 1.772175 0
M  V30 5 C 8.607175 -2.529928 0.779196 0
M  V30 6 C 8.449652 -1.498133 -0.131949 0
M  V30 7 C 7.325614 -0.710104 0.006632 0
M  V30 8 C 6.369098 -0.906750 1.000444 0
M  V30 9 C 5.263981 0.080124 0.922339 0 CFG=2
M  V30 10 C 3.991563 -0.329932 1.569965 0
M  V30 11 N 3.002492 0.472207 0.833155 0
M  V30 12 C 1.752691 -0.213443 0.913811 0
M  V30 13 C 0.614903 0.478687 0.203329 0
M  V30 14 C 0.315501 1.848667 0.715838 0
M  V30 15 C -0.818096 2.538693 0.007758 0
M  V30 16 N -2.074697 1.873320 0.074121 0
M  V30 17 C -2.575960 0.959578 -0.772550 0
M  V30 18 O -1.801169 0.672997 -1.753097 0
M  V30 19 N -3.747939 0.353554 -0.690143 0
M  V30 20 C -4.608553 0.607258 0.311785 0
M  V30 21 C -4.109051 1.548915 1.197371 0
M  V30 22 S -5.354507 1.760480 2.437649 0
M  V30 23 C -6.515655 0.541541 1.685996 0
M  V30 24 N -7.745901 0.121893 2.064247 0
M  V30 25 C -8.406758 -0.794228 1.336895 0
M  V30 26 C -7.739184 -1.236650 0.228809 0
M  V30 27 C -8.373657 -2.231352 -0.624419 0
M  V30 28 C -9.614854 -2.728014 -0.341656 0
M  V30 29 C -10.193121 -3.671962 -1.169500 0
M  V30 30 C -9.567452 -4.158046 -2.303799 0
M  V30 31 C -8.307950 -3.660065 -2.598835 0
M  V30 32 C -7.771694 -2.730851 -1.758623 0
M  V30 33 N -6.541565 -0.816035 -0.123117 0
M  V30 34 C -5.851553 0.097852 0.578847 0
M  V30 35 C -2.895851 2.165873 1.098094 0
M  V30 36 O -2.565280 2.998377 1.966183 0
M  V30 37 C 3.510478 0.655844 -0.497091 0
M  V30 38 C 4.861944 0.050216 -0.542611 0 CFG=1
M  V30 39 C 5.902467 0.867084 -1.254947 0
M  V30 40 O 7.164649 0.325420 -0.905413 0
M  V30 41 H 6.642603 -3.266575 4.180494 0
M  V30 42 H 4.999419 -2.791627 4.684304 0
M  V30 43 H 5.278019 -4.058583 3.384903 0
M  V30 44 H 7.763801 -3.537378 2.497826 0
M  V30 45 H 9.475395 -3.168573 0.702421 0
M  V30 46 H 9.177047 -1.333501 -0.902957 0
M  V30 47 H 5.593350 1.085730 1.241733 0
M  V30 48 H 3.916248 -0.073751 2.638980 0
M  V30 49 H 3.816721 -1.415294 1.397529 0
M  V30 50 H 1.473361 -0.270225 1.979995 0
M  V30 51 H 1.829776 -1.227325 0.513039 0
M  V30 52 H 0.798351 0.456007 -0.883691 0
M  V30 53 H -0.289630 -0.158301 0.386832 0
M  V30 54 H 0.241064 1.856580 1.801355 0
M  V30 55 H 1.224850 2.477898 0.482240 0
M  V30 56 H -0.524495 2.536141 -1.083376 0
M  V30 57 H -0.864118 3.587052 0.295884 0
M  V30 58 H -3.978793 -0.342677 -1.451133 0
M  V30 59 H -9.376343 -1.084758 1.689152 0
M  V30 60 H -10.203132 -2.444459 0.491239 0
M  V30 61 H -11.174899 -4.072842 -0.956631 0
M  V30 62 H -10.036393 -4.895046 -2.936780 0
M  V30 63 H -7.769459 -3.998850 -3.467944 0
M  V30 64 H -6.774491 -2.349339 -2.009424 0
M  V30 65 H 2.868778 0.153721 -1.265485 0
M  V30 66 H 3.589386 1.732143 -0.752720 0
M  V30 67 H 4.920285 -0.985610 -0.924740 0
M  V30 68 H 5.740275 0.861736 -2.354417 0
M  V30 69 H 5.897349 1.913937 -0.831736 0
M  V30 END ATOM
M  V30 BEGIN BOND
M  V30 1 1 1 2
M  V30 2 1 2 3
M  V30 3 2 3 4
M  V30 4 1 4 5
M  V30 5 2 5 6
M  V30 6 1 6 7
M  V30 7 2 7 8
M  V30 8 1 8 9
M  V30 9 1 9 10
M  V30 10 1 10 11
M  V30 11 1 11 12
M  V30 12 1 12 13
M  V30 13 1 13 14
M  V30 14 1 14 15
M  V30 15 1 15 16
M  V30 16 1 16 17
M  V30 17 2 17 18
M  V30 18 1 17 19
M  V30 19 1 19 20
M  V30 20 2 20 21
M  V30 21 1 21 22
M  V30 22 1 22 23
M  V30 23 2 23 24
M  V30 24 1 24 25
M  V30 25 2 25 26
M  V30 26 1 26 27
M  V30 27 2 27 28
M  V30 28 1 28 29
M  V30 29 2 29 30
M  V30 30 1 30 31
M  V30 31 2 31 32
M  V30 32 1 26 33
M  V30 33 2 33 34
M  V30 34 1 21 35
M  V30 35 2 35 36
M  V30 36 1 11 37
M  V30 37 1 37 38
M  V30 38 1 38 39
M  V30 39 1 39 40
M  V30 40 1 8 3
M  V30 41 1 38 9
M  V30 42 1 40 7
M  V30 43 1 35 16
M  V30 44 1 34 20
M  V30 45 1 34 23
M  V30 46 1 32 27
M  V30 47 1 1 41
M  V30 48 1 1 42
M  V30 49 1 1 43
M  V30 50 1 4 44
M  V30 51 1 5 45
M  V30 52 1 6 46
M  V30 53 1 9 47 CFG=1
M  V30 54 1 10 48
M  V30 55 1 10 49
M  V30 56 1 12 50
M  V30 57 1 12 51
M  V30 58 1 13 52
M  V30 59 1 13 53
M  V30 60 1 14 54
M  V30 61 1 14 55
M  V30 62 1 15 56
M  V30 63 1 15 57
M  V30 64 1 19 58
M  V30 65 1 25 59
M  V30 66 1 28 60
M  V30 67 1 29 61
M  V30 68 1 30 62
M  V30 69 1 31 63
M  V30 70 1 32 64
M  V30 71 1 37 65
M  V30 72 1 37 66
M  V30 73 1 38 67 CFG=3
M  V30 74 1 39 68
M  V30 75 1 39 69
M  V30 END BOND
M  V30 END CTAB
M  END
>  <Dataset>  (936) 
ChEMBL_Kinases

>  <Ligand_Instance>  (936) 
nan

>  <PDB_ID>  (936) 
nan

>  <Standardized_SMILES>  (936) 
COc1cccc2c1[C@@H]1CN(CCCCn3c(=O)[nH]c4c(sc5ncc(-c6ccccc6)nc54)c3=O)C[C@H]1CO2

>  <Name>  (936) 
nan

>  <Pocket>  (936) 
nan

>  <ATP_Site>  (936) 
nan

>  <Peripheral>  (936) 
nan

>  <Num_H_Atoms_ProtBoundConf>  (936) 
nan

>  <Num_Resolved_Atoms>  (936) 
nan

>  <Num_Not_Resolved_Atoms>  (936) 
nan

$$$$
CHEMBL1513990
     RDKit          3D

  0  0  0  0  0  0  0  0  0  0999 V3000
M  V30 BEGIN CTAB
M  V30 COUNTS 41 44 0 0 0
M  V30 BEGIN ATOM
M  V30 1 N -1.735754 -5.201837 -0.605455 0
M  V30 2 C -0.581020 -5.029113 -0.480357 0
M  V30 3 C 0.827352 -4.835487 -0.309477 0
M  V30 4 C 1.690093 -5.858449 -0.003080 0
M  V30 5 C 3.043920 -5.618147 0.153359 0
M  V30 6 C 3.508768 -4.327888 -0.005193 0
M  V30 7 C 2.632152 -3.302508 -0.314082 0
M  V30 8 C 1.280899 -3.543272 -0.470094 0
M  V30 9 C 0.487551 -2.359638 -0.796479 0
M  V30 10 C -0.459591 -2.454370 -1.820692 0
M  V30 11 C -1.202536 -1.332266 -2.119088 0
M  V30 12 C -1.021382 -0.151769 -1.432613 0
M  V30 13 N -1.772869 0.928276 -1.757592 0
M  V30 14 C -1.574083 2.068198 -1.069880 0
M  V30 15 N -0.675630 2.194345 -0.083066 0
M  V30 16 C 0.087378 1.158375 0.272485 0
M  V30 17 N 1.044126 1.272448 1.309552 0
M  V30 18 C 1.310835 2.458407 2.089888 0
M  V30 19 C 0.148572 2.919814 2.892115 0
M  V30 20 C 0.136117 2.244838 4.119677 0
M  V30 21 C -0.858490 2.505110 5.068655 0
M  V30 22 C -1.825275 3.441332 4.766464 0
M  V30 23 N -1.787204 4.072937 3.580670 0
M  V30 24 C -0.844569 3.842761 2.652171 0
M  V30 25 C -0.098295 -0.020144 -0.417887 0
M  V30 26 C 0.620914 -1.149227 -0.147067 0
M  V30 27 H 1.265968 -6.858604 0.110464 0
M  V30 28 H 3.723424 -6.443552 0.398142 0
M  V30 29 H 4.578330 -4.112942 0.114011 0
M  V30 30 H 3.080265 -2.308908 -0.422950 0
M  V30 31 H -0.646957 -3.350772 -2.394908 0
M  V30 32 H -1.947651 -1.360536 -2.905268 0
M  V30 33 H -2.197604 2.895973 -1.368365 0
M  V30 34 H 1.655783 0.484674 1.608425 0
M  V30 35 H 1.509959 3.318045 1.371409 0
M  V30 36 H 2.232595 2.397300 2.683415 0
M  V30 37 H 0.831939 1.490872 4.480827 0
M  V30 38 H -0.921546 2.019018 6.029664 0
M  V30 39 H -2.628655 3.684276 5.473974 0
M  V30 40 H -0.730861 4.301378 1.687115 0
M  V30 41 H 1.365867 -1.175003 0.616192 0
M  V30 END ATOM
M  V30 BEGIN BOND
M  V30 1 3 1 2
M  V30 2 1 2 3
M  V30 3 2 3 4
M  V30 4 1 4 5
M  V30 5 2 5 6
M  V30 6 1 6 7
M  V30 7 2 7 8
M  V30 8 1 8 9
M  V30 9 2 9 10
M  V30 10 1 10 11
M  V30 11 2 11 12
M  V30 12 1 12 13
M  V30 13 2 13 14
M  V30 14 1 14 15
M  V30 15 2 15 16
M  V30 16 1 16 17
M  V30 17 1 17 18
M  V30 18 1 18 19
M  V30 19 2 19 20
M  V30 20 1 20 21
M  V30 21 2 21 22
M  V30 22 1 22 23
M  V30 23 2 23 24
M  V30 24 1 16 25
M  V30 25 2 25 26
M  V30 26 1 8 3
M  V30 27 1 26 9
M  V30 28 1 25 12
M  V30 29 1 24 19
M  V30 30 1 4 27
M  V30 31 1 5 28
M  V30 32 1 6 29
M  V30 33 1 7 30
M  V30 34 1 10 31
M  V30 35 1 11 32
M  V30 36 1 14 33
M  V30 37 1 17 34
M  V30 38 1 18 35
M  V30 39 1 18 36
M  V30 40 1 20 37
M  V30 41 1 21 38
M  V30 42 1 22 39
M  V30 43 1 24 40
M  V30 44 1 26 41
M  V30 END BOND
M  V30 END CTAB
M  END
>  <Dataset>  (937) 
ChEMBL_Kinases

>  <Ligand_Instance>  (937) 
nan

>  <PDB_ID>  (937) 
nan

>  <Standardized_SMILES>  (937) 
N#Cc1ccccc1-c1ccc2ncnc(NCc3cccnc3)c2c1

>  <Name>  (937) 
nan

>  <Pocket>  (937) 
nan

>  <ATP_Site>  (937) 
nan

>  <Peripheral>  (937) 
nan

>  <Num_H_Atoms_ProtBoundConf>  (937) 
nan

>  <Num_Resolved_Atoms>  (937) 
nan

>  <Num_Not_Resolved_Atoms>  (937) 
nan

$$$$
CHEMBL1513614
     RDKit          3D

  0  0  0  0  0  0  0  0  0  0999 V3000
M  V30 BEGIN CTAB
M  V30 COUNTS 62 66 0 0 0
M  V30 BEGIN ATOM
M  V30 1 C 4.124125 3.832393 3.301047 0
M  V30 2 C 3.216648 2.658124 3.124148 0
M  V30 3 C 2.463462 2.688128 1.786764 0
M  V30 4 N 1.598422 1.531191 1.660845 0
M  V30 5 C 2.061443 0.398215 1.102825 0
M  V30 6 C 3.334463 -0.034531 0.525653 0
M  V30 7 C 4.326489 -0.791004 1.110107 0
M  V30 8 C 5.463039 -1.096274 0.390752 0
M  V30 9 C 5.589751 -0.638615 -0.905498 0
M  V30 10 F 6.711709 -0.935148 -1.626214 0
M  V30 11 C 4.621147 0.121330 -1.528404 0
M  V30 12 C 3.476066 0.423132 -0.789820 0
M  V30 13 N 1.047346 -0.485561 1.122093 0
M  V30 14 C -0.023879 0.061804 1.671704 0
M  V30 15 C -1.288579 -0.438107 1.907735 0
M  V30 16 N -1.711381 -1.741063 1.580478 0
M  V30 17 C -3.102469 -2.156815 1.832924 0
M  V30 18 C -3.710946 -2.286896 0.454138 0
M  V30 19 N -2.787841 -2.461226 -0.584151 0
M  V30 20 C -3.017124 -1.835363 -1.830791 0
M  V30 21 C -4.208995 -2.484592 -2.501468 0
M  V30 22 N -3.858246 -3.891143 -2.685574 0
M  V30 23 C -3.235147 -4.342584 -3.806207 0
M  V30 24 C -3.002883 -5.697596 -3.766443 0
M  V30 25 N -3.509031 -6.061005 -2.574262 0
M  V30 26 C -4.010577 -4.984734 -1.947252 0
M  V30 27 C -1.551511 -3.083752 -0.351957 0
M  V30 28 C -0.936083 -2.786996 0.996291 0
M  V30 29 N -2.156243 0.405848 2.493247 0
M  V30 30 C -1.805545 1.675994 2.831470 0
M  V30 31 C -2.843800 2.539768 3.477583 0
M  V30 32 N -0.559721 2.188557 2.606184 0
M  V30 33 C 0.316007 1.352829 2.020956 0
M  V30 34 H 4.228883 4.471786 2.417378 0
M  V30 35 H 3.713365 4.479230 4.110192 0
M  V30 36 H 5.126453 3.493952 3.693588 0
M  V30 37 H 3.852297 1.739791 3.061939 0
M  V30 38 H 2.527860 2.495140 3.961088 0
M  V30 39 H 3.142586 2.780444 0.944624 0
M  V30 40 H 1.756724 3.561756 1.887075 0
M  V30 41 H 4.107260 -1.087036 2.127012 0
M  V30 42 H 6.211807 -1.685948 0.877673 0
M  V30 43 H 4.755159 0.462306 -2.546449 0
M  V30 44 H 2.758397 1.020985 -1.337830 0
M  V30 45 H -3.099865 -3.178342 2.263532 0
M  V30 46 H -3.635701 -1.485372 2.502066 0
M  V30 47 H -4.501602 -3.045907 0.432317 0
M  V30 48 H -4.247900 -1.306201 0.296839 0
M  V30 49 H -2.129213 -2.057597 -2.482228 0
M  V30 50 H -3.155785 -0.736388 -1.781891 0
M  V30 51 H -5.103128 -2.396822 -1.827529 0
M  V30 52 H -4.442645 -2.064360 -3.483491 0
M  V30 53 H -2.941713 -3.715704 -4.657537 0
M  V30 54 H -2.530507 -6.310304 -4.511539 0
M  V30 55 H -4.478705 -4.968285 -0.982218 0
M  V30 56 H -0.817935 -2.672605 -1.098260 0
M  V30 57 H -1.594111 -4.171178 -0.566092 0
M  V30 58 H -1.118790 -3.721722 1.601572 0
M  V30 59 H 0.139368 -2.662205 0.973924 0
M  V30 60 H -3.329517 3.083377 2.615123 0
M  V30 61 H -3.600272 1.897894 3.962308 0
M  V30 62 H -2.424066 3.312767 4.131622 0
M  V30 END ATOM
M  V30 BEGIN BOND
M  V30 1 1 1 2
M  V30 2 1 2 3
M  V30 3 1 3 4
M  V30 4 1 4 5
M  V30 5 1 5 6
M  V30 6 2 6 7
M  V30 7 1 7 8
M  V30 8 2 8 9
M  V30 9 1 9 10
M  V30 10 1 9 11
M  V30 11 2 11 12
M  V30 12 2 5 13
M  V30 13 1 13 14
M  V30 14 2 14 15
M  V30 15 1 15 16
M  V30 16 1 16 17
M  V30 17 1 17 18
M  V30 18 1 18 19
M  V30 19 1 19 20
M  V30 20 1 20 21
M  V30 21 1 21 22
M  V30 22 1 22 23
M  V30 23 2 23 24
M  V30 24 1 24 25
M  V30 25 2 25 26
M  V30 26 1 19 27
M  V30 27 1 27 28
M  V30 28 1 15 29
M  V30 29 2 29 30
M  V30 30 1 30 31
M  V30 31 1 30 32
M  V30 32 2 32 33
M  V30 33 1 33 4
M  V30 34 1 12 6
M  V30 35 1 33 14
M  V30 36 1 28 16
M  V30 37 1 26 22
M  V30 38 1 1 34
M  V30 39 1 1 35
M  V30 40 1 1 36
M  V30 41 1 2 37
M  V30 42 1 2 38
M  V30 43 1 3 39
M  V30 44 1 3 40
M  V30 45 1 7 41
M  V30 46 1 8 42
M  V30 47 1 11 43
M  V30 48 1 12 44
M  V30 49 1 17 45
M  V30 50 1 17 46
M  V30 51 1 18 47
M  V30 52 1 18 48
M  V30 53 1 20 49
M  V30 54 1 20 50
M  V30 55 1 21 51
M  V30 56 1 21 52
M  V30 57 1 23 53
M  V30 58 1 24 54
M  V30 59 1 26 55
M  V30 60 1 27 56
M  V30 61 1 27 57
M  V30 62 1 28 58
M  V30 63 1 28 59
M  V30 64 1 31 60
M  V30 65 1 31 61
M  V30 66 1 31 62
M  V30 END BOND
M  V30 END CTAB
M  END
>  <Dataset>  (938) 
ChEMBL_Kinases

>  <Ligand_Instance>  (938) 
nan

>  <PDB_ID>  (938) 
nan

>  <Standardized_SMILES>  (938) 
CCCn1c(-c2ccc(F)cc2)nc2c(N3CCN(CCn4ccnc4)CC3)nc(C)nc21

>  <Name>  (938) 
nan

>  <Pocket>  (938) 
nan

>  <ATP_Site>  (938) 
nan

>  <Peripheral>  (938) 
nan

>  <Num_H_Atoms_ProtBoundConf>  (938) 
nan

>  <Num_Resolved_Atoms>  (938) 
nan

>  <Num_Not_Resolved_Atoms>  (938) 
nan

$$$$
CHEMBL1513578
     RDKit          3D

  0  0  0  0  0  0  0  0  0  0999 V3000
M  V30 BEGIN CTAB
M  V30 COUNTS 35 38 0 0 0
M  V30 BEGIN ATOM
M  V30 1 F 1.214221 -3.463557 5.265294 0
M  V30 2 C 0.904393 -3.233387 3.951893 0
M  V30 3 C 0.944934 -4.222618 2.970919 0
M  V30 4 C 0.614306 -3.869754 1.689473 0
M  V30 5 C 0.240823 -2.595278 1.290596 0
M  V30 6 N -0.080890 -2.287792 -0.066708 0
M  V30 7 C -0.333940 -0.893885 -0.272540 0
M  V30 8 N 0.805636 -0.185871 -0.136873 0
M  V30 9 C 0.854914 1.162180 -0.284690 0
M  V30 10 C 2.137563 1.862045 -0.112543 0
M  V30 11 C 3.358352 1.245671 -0.344880 0
M  V30 12 C 4.320547 2.223122 -0.072088 0
M  V30 13 O 3.691614 3.304752 0.285064 0
M  V30 14 C 2.391711 3.158106 0.282632 0
M  V30 15 N -0.284334 1.802119 -0.578252 0
M  V30 16 C -1.458777 1.118685 -0.723529 0
M  V30 17 C -2.649925 1.736812 -1.033355 0
M  V30 18 C -3.821317 0.983934 -1.178649 0
M  V30 19 C -3.778616 -0.402355 -1.007026 0
M  V30 20 C -2.593454 -1.073634 -0.691960 0
M  V30 21 C -1.516588 -0.243948 -0.575310 0
M  V30 22 C 0.232771 -1.699173 2.326842 0
M  V30 23 C 0.541069 -1.926951 3.648724 0
M  V30 24 H 1.236237 -5.183627 3.315120 0
M  V30 25 H 0.650275 -4.658604 0.920239 0
M  V30 26 H -0.097614 -3.082251 -0.733656 0
M  V30 27 H 3.600937 0.236252 -0.665526 0
M  V30 28 H 5.413851 2.106035 -0.144613 0
M  V30 29 H 1.569771 3.818179 0.515201 0
M  V30 30 H -2.667595 2.809599 -1.164999 0
M  V30 31 H -4.751315 1.497012 -1.425767 0
M  V30 32 H -4.699576 -0.979539 -1.121966 0
M  V30 33 H -2.537713 -2.144097 -0.555485 0
M  V30 34 H -0.053705 -0.669217 2.078151 0
M  V30 35 H 0.495597 -1.120420 4.379559 0
M  V30 END ATOM
M  V30 BEGIN BOND
M  V30 1 1 1 2
M  V30 2 2 2 3
M  V30 3 1 3 4
M  V30 4 2 4 5
M  V30 5 1 5 6
M  V30 6 1 6 7
M  V30 7 2 7 8
M  V30 8 1 8 9
M  V30 9 1 9 10
M  V30 10 1 10 11
M  V30 11 2 11 12
M  V30 12 1 12 13
M  V30 13 1 13 14
M  V30 14 2 9 15
M  V30 15 1 15 16
M  V30 16 2 16 17
M  V30 17 1 17 18
M  V30 18 2 18 19
M  V30 19 1 19 20
M  V30 20 2 20 21
M  V30 21 1 5 22
M  V30 22 2 22 23
M  V30 23 1 23 2
M  V30 24 1 21 7
M  V30 25 2 14 10
M  V30 26 1 21 16
M  V30 27 1 3 24
M  V30 28 1 4 25
M  V30 29 1 6 26
M  V30 30 1 11 27
M  V30 31 1 12 28
M  V30 32 1 14 29
M  V30 33 1 17 30
M  V30 34 1 18 31
M  V30 35 1 19 32
M  V30 36 1 20 33
M  V30 37 1 22 34
M  V30 38 1 23 35
M  V30 END BOND
M  V30 END CTAB
M  END
>  <Dataset>  (939) 
ChEMBL_Kinases

>  <Ligand_Instance>  (939) 
nan

>  <PDB_ID>  (939) 
nan

>  <Standardized_SMILES>  (939) 
Fc1ccc(Nc2nc(-c3ccoc3)nc3ccccc23)cc1

>  <Name>  (939) 
nan

>  <Pocket>  (939) 
nan

>  <ATP_Site>  (939) 
nan

>  <Peripheral>  (939) 
nan

>  <Num_H_Atoms_ProtBoundConf>  (939) 
nan

>  <Num_Resolved_Atoms>  (939) 
nan

>  <Num_Not_Resolved_Atoms>  (939) 
nan

$$$$
CHEMBL1513485
     RDKit          3D

  0  0  0  0  0  0  0  0  0  0999 V3000
M  V30 BEGIN CTAB
M  V30 COUNTS 48 51 0 0 0
M  V30 BEGIN ATOM
M  V30 1 C -4.307079 -7.784168 1.734161 0
M  V30 2 O -4.156829 -7.023091 0.537423 0
M  V30 3 C -3.337903 -5.903861 0.495360 0
M  V30 4 C -2.596016 -5.397344 1.538316 0
M  V30 5 C -1.801978 -4.273053 1.417053 0
M  V30 6 C -1.750491 -3.625897 0.189196 0
M  V30 7 C -0.921547 -2.443542 0.013196 0
M  V30 8 N 0.355746 -2.208932 0.357943 0
M  V30 9 C 0.960785 -1.030343 0.111237 0
M  V30 10 C 2.271505 -0.808500 0.462990 0
M  V30 11 N 2.867188 0.367498 0.206525 0
M  V30 12 C 2.181331 1.377417 -0.414300 0
M  V30 13 N 2.555217 2.688987 -0.810806 0
M  V30 14 C 2.697625 3.657425 0.209337 0
M  V30 15 C 2.819925 5.017367 0.004598 0
M  V30 16 C 2.983425 5.924435 1.056544 0
M  V30 17 C 3.025938 5.457611 2.360143 0
M  V30 18 C 2.910434 4.104444 2.650379 0
M  V30 19 O 2.945015 3.561675 3.927376 0
M  V30 20 C 2.826454 2.162955 4.126749 0
M  V30 21 C 2.751623 3.273003 1.555915 0
M  V30 22 N 0.878059 1.167179 -0.768413 0
M  V30 23 C 0.254116 -0.020987 -0.517249 0
M  V30 24 N -1.046645 -0.232243 -0.879724 0
M  V30 25 C -1.682925 0.895798 -1.535739 0
M  V30 26 C -1.615559 -1.424512 -0.615004 0
M  V30 27 O -2.830560 -1.459269 -1.015835 0
M  V30 28 C -2.476733 -4.097481 -0.884389 0
M  V30 29 C -3.257527 -5.232086 -0.703803 0
M  V30 30 H -3.334670 -8.229373 2.003204 0
M  V30 31 H -4.576478 -7.109198 2.593258 0
M  V30 32 H -5.105666 -8.509282 1.576564 0
M  V30 33 H -2.681299 -5.947154 2.465643 0
M  V30 34 H -1.260040 -3.954594 2.291412 0
M  V30 35 H 2.878342 -1.551831 0.954725 0
M  V30 36 H 2.730096 2.978788 -1.797818 0
M  V30 37 H 2.780330 5.343763 -1.045684 0
M  V30 38 H 3.071888 6.976857 0.824779 0
M  V30 39 H 3.152077 6.143267 3.185083 0
M  V30 40 H 1.886689 1.749227 3.711909 0
M  V30 41 H 2.927100 1.988690 5.225349 0
M  V30 42 H 3.672745 1.621312 3.640990 0
M  V30 43 H 2.662670 2.204907 1.773368 0
M  V30 44 H -1.601870 1.794377 -0.920273 0
M  V30 45 H -1.040726 1.097974 -2.443781 0
M  V30 46 H -2.701949 0.646177 -1.888844 0
M  V30 47 H -2.427078 -3.581150 -1.852795 0
M  V30 48 H -3.790730 -5.520456 -1.611545 0
M  V30 END ATOM
M  V30 BEGIN BOND
M  V30 1 1 1 2
M  V30 2 1 2 3
M  V30 3 2 3 4
M  V30 4 1 4 5
M  V30 5 2 5 6
M  V30 6 1 6 7
M  V30 7 2 7 8
M  V30 8 1 8 9
M  V30 9 2 9 10
M  V30 10 1 10 11
M  V30 11 2 11 12
M  V30 12 1 12 13
M  V30 13 1 13 14
M  V30 14 2 14 15
M  V30 15 1 15 16
M  V30 16 2 16 17
M  V30 17 1 17 18
M  V30 18 1 18 19
M  V30 19 1 19 20
M  V30 20 2 18 21
M  V30 21 1 12 22
M  V30 22 2 22 23
M  V30 23 1 23 24
M  V30 24 1 24 25
M  V30 25 1 24 26
M  V30 26 2 26 27
M  V30 27 1 6 28
M  V30 28 2 28 29
M  V30 29 1 29 3
M  V30 30 1 26 7
M  V30 31 1 23 9
M  V30 32 1 21 14
M  V30 33 1 1 30
M  V30 34 1 1 31
M  V30 35 1 1 32
M  V30 36 1 4 33
M  V30 37 1 5 34
M  V30 38 1 10 35
M  V30 39 1 13 36
M  V30 40 1 15 37
M  V30 41 1 16 38
M  V30 42 1 17 39
M  V30 43 1 20 40
M  V30 44 1 20 41
M  V30 45 1 20 42
M  V30 46 1 21 43
M  V30 47 1 25 44
M  V30 48 1 25 45
M  V30 49 1 25 46
M  V30 50 1 28 47
M  V30 51 1 29 48
M  V30 END BOND
M  V30 END CTAB
M  END
>  <Dataset>  (940) 
ChEMBL_Kinases

>  <Ligand_Instance>  (940) 
nan

>  <PDB_ID>  (940) 
nan

>  <Standardized_SMILES>  (940) 
COc1ccc(-c2nc3cnc(Nc4cccc(OC)c4)nc3n(C)c2=O)cc1

>  <Name>  (940) 
nan

>  <Pocket>  (940) 
nan

>  <ATP_Site>  (940) 
nan

>  <Peripheral>  (940) 
nan

>  <Num_H_Atoms_ProtBoundConf>  (940) 
nan

>  <Num_Resolved_Atoms>  (940) 
nan

>  <Num_Not_Resolved_Atoms>  (940) 
nan

$$$$
CHEMBL1513348
     RDKit          3D

  0  0  0  0  0  0  0  0  0  0999 V3000
M  V30 BEGIN CTAB
M  V30 COUNTS 38 40 0 0 0
M  V30 BEGIN ATOM
M  V30 1 C 0.991692 -6.467124 2.448471 0
M  V30 2 C 1.847627 -5.219831 2.250464 0
M  V30 3 N 0.974246 -4.205338 1.676323 0
M  V30 4 C 1.561383 -2.945638 1.403377 0
M  V30 5 O 2.793072 -2.823141 1.685985 0
M  V30 6 C 0.687162 -1.899974 0.818439 0 CFG=2
M  V30 7 O 1.321208 -0.714201 0.582873 0
M  V30 8 C 0.455109 0.331771 0.783363 0 CFG=1
M  V30 9 N 0.397006 1.297895 -0.269811 0
M  V30 10 C 0.573468 1.147073 -1.611072 0
M  V30 11 N 0.428115 2.340362 -2.249891 0
M  V30 12 C 0.157998 3.251495 -1.306285 0
M  V30 13 C -0.085690 4.608901 -1.328246 0
M  V30 14 N -0.079841 5.336193 -2.567108 0
M  V30 15 N -0.334481 5.284074 -0.191636 0
M  V30 16 C -0.353272 4.650015 1.011526 0
M  V30 17 N -0.115452 3.321344 1.039416 0
M  V30 18 C 0.136145 2.623375 -0.085282 0
M  V30 19 C -0.901514 -0.246057 1.134924 0 CFG=2
M  V30 20 O -1.587792 0.561378 2.027346 0
M  V30 21 C -0.450210 -1.545532 1.780979 0 CFG=1
M  V30 22 O -1.439865 -2.522418 1.757638 0
M  V30 23 H 0.314281 -6.534232 1.572385 0
M  V30 24 H 0.363575 -6.290561 3.355533 0
M  V30 25 H 1.605998 -7.394158 2.521582 0
M  V30 26 H 2.235027 -4.902052 3.257382 0
M  V30 27 H 2.715807 -5.454689 1.630566 0
M  V30 28 H -0.037180 -4.370988 1.466320 0
M  V30 29 H 0.207344 -2.280906 -0.102405 0
M  V30 30 H 0.813666 0.850022 1.717914 0
M  V30 31 H 0.795994 0.215889 -2.093951 0
M  V30 32 H -0.843997 4.955749 -3.192305 0
M  V30 33 H -0.688684 5.234043 -3.410269 0
M  V30 34 H -0.561881 5.271758 1.873835 0
M  V30 35 H -1.509312 -0.514631 0.245051 0
M  V30 36 H -2.498957 0.698839 1.667213 0
M  V30 37 H -0.084509 -1.299045 2.789668 0
M  V30 38 H -2.328564 -2.170793 1.991870 0
M  V30 END ATOM
M  V30 BEGIN BOND
M  V30 1 1 1 2
M  V30 2 1 2 3
M  V30 3 1 3 4
M  V30 4 2 4 5
M  V30 5 1 4 6
M  V30 6 1 6 7
M  V30 7 1 7 8
M  V30 8 1 8 9
M  V30 9 1 9 10
M  V30 10 2 10 11
M  V30 11 1 11 12
M  V30 12 2 12 13
M  V30 13 1 13 14
M  V30 14 1 13 15
M  V30 15 2 15 16
M  V30 16 1 16 17
M  V30 17 2 17 18
M  V30 18 1 8 19
M  V30 19 1 19 20
M  V30 20 1 19 21
M  V30 21 1 21 22
M  V30 22 1 21 6
M  V30 23 1 18 9
M  V30 24 1 18 12
M  V30 25 1 1 23
M  V30 26 1 1 24
M  V30 27 1 1 25
M  V30 28 1 2 26
M  V30 29 1 2 27
M  V30 30 1 3 28
M  V30 31 1 6 29 CFG=3
M  V30 32 1 8 30 CFG=1
M  V30 33 1 10 31
M  V30 34 1 14 32
M  V30 35 1 14 33
M  V30 36 1 16 34
M  V30 37 1 19 35 CFG=3
M  V30 38 1 20 36
M  V30 39 1 21 37 CFG=1
M  V30 40 1 22 38
M  V30 END BOND
M  V30 END CTAB
M  END
>  <Dataset>  (941) 
ChEMBL_Kinases

>  <Ligand_Instance>  (941) 
nan

>  <PDB_ID>  (941) 
nan

>  <Standardized_SMILES>  (941) 
CCNC(=O)[C@@H]1O[C@@H](n2cnc3c(N)ncnc32)[C@H](O)[C@H]1O

>  <Name>  (941) 
nan

>  <Pocket>  (941) 
nan

>  <ATP_Site>  (941) 
nan

>  <Peripheral>  (941) 
nan

>  <Num_H_Atoms_ProtBoundConf>  (941) 
nan

>  <Num_Resolved_Atoms>  (941) 
nan

>  <Num_Not_Resolved_Atoms>  (941) 
nan

$$$$
CHEMBL1513334
     RDKit          3D

  0  0  0  0  0  0  0  0  0  0999 V3000
M  V30 BEGIN CTAB
M  V30 COUNTS 36 38 0 0 0
M  V30 BEGIN ATOM
M  V30 1 O 1.912664 0.941584 0.337075 0
M  V30 2 C 1.380984 0.386923 -0.656185 0
M  V30 3 N 0.747856 -0.858133 -0.464053 0
M  V30 4 C 0.663327 -1.556331 0.823670 0 CFG=1
M  V30 5 C -0.042760 -2.851062 0.699808 0
M  V30 6 O -0.289977 -3.704597 1.572367 0
M  V30 7 O -0.570354 -3.342252 -0.483397 0
M  V30 8 C 1.726875 -1.441856 1.812095 0
M  V30 9 C 0.436426 -0.766836 2.062603 0 CFG=2
M  V30 10 C -0.561218 -1.281249 3.029742 0
M  V30 11 C -1.781303 -0.626933 3.013635 0
M  V30 12 C -2.828007 -0.950739 3.851833 0
M  V30 13 C -2.664117 -1.977747 4.757971 0
M  V30 14 C -1.455755 -2.642446 4.790454 0
M  V30 15 C -0.421353 -2.302007 3.942900 0
M  V30 16 C 1.470118 1.091631 -1.928671 0
M  V30 17 C 2.122868 2.305280 -1.962407 0
M  V30 18 C 2.254537 3.043277 -3.129831 0
M  V30 19 C 1.721486 2.564181 -4.307156 0
M  V30 20 C 1.063141 1.354287 -4.306360 0
M  V30 21 C 0.952869 0.650067 -3.125967 0
M  V30 22 H 0.331892 -1.243243 -1.364463 0
M  V30 23 H -1.415906 -3.862849 -0.554193 0
M  V30 24 H 2.660578 -0.838860 1.648258 0
M  V30 25 H 1.956568 -2.297031 2.495691 0
M  V30 26 H 0.432395 0.343167 2.002147 0
M  V30 27 H -2.000277 0.201232 2.326616 0
M  V30 28 H -3.783005 -0.468098 3.867636 0
M  V30 29 H -3.375898 -2.359072 5.482702 0
M  V30 30 H -1.224068 -3.456490 5.457500 0
M  V30 31 H 0.535736 -2.792607 3.953532 0
M  V30 32 H 2.583709 2.786329 -1.101637 0
M  V30 33 H 2.763842 3.996624 -3.171041 0
M  V30 34 H 1.834713 3.160602 -5.221429 0
M  V30 35 H 0.634284 0.950811 -5.211109 0
M  V30 36 H 0.440797 -0.282429 -3.145353 0
M  V30 END ATOM
M  V30 BEGIN BOND
M  V30 1 2 1 2
M  V30 2 1 2 3
M  V30 3 1 4 3 CFG=3
M  V30 4 1 4 5
M  V30 5 2 5 6
M  V30 6 1 5 7
M  V30 7 1 4 8
M  V30 8 1 8 9
M  V30 9 1 9 10
M  V30 10 2 10 11
M  V30 11 1 11 12
M  V30 12 2 12 13
M  V30 13 1 13 14
M  V30 14 2 14 15
M  V30 15 1 2 16
M  V30 16 2 16 17
M  V30 17 1 17 18
M  V30 18 2 18 19
M  V30 19 1 19 20
M  V30 20 2 20 21
M  V30 21 1 9 4
M  V30 22 1 15 10
M  V30 23 1 21 16
M  V30 24 1 3 22
M  V30 25 1 7 23
M  V30 26 1 8 24
M  V30 27 1 8 25
M  V30 28 1 9 26 CFG=3
M  V30 29 1 11 27
M  V30 30 1 12 28
M  V30 31 1 13 29
M  V30 32 1 14 30
M  V30 33 1 15 31
M  V30 34 1 17 32
M  V30 35 1 18 33
M  V30 36 1 19 34
M  V30 37 1 20 35
M  V30 38 1 21 36
M  V30 END BOND
M  V30 END CTAB
M  END
>  <Dataset>  (942) 
ChEMBL_Kinases

>  <Ligand_Instance>  (942) 
nan

>  <PDB_ID>  (942) 
nan

>  <Standardized_SMILES>  (942) 
O=C(N[C@@]1(C(=O)O)C[C@@H]1c1ccccc1)c1ccccc1

>  <Name>  (942) 
nan

>  <Pocket>  (942) 
nan

>  <ATP_Site>  (942) 
nan

>  <Peripheral>  (942) 
nan

>  <Num_H_Atoms_ProtBoundConf>  (942) 
nan

>  <Num_Resolved_Atoms>  (942) 
nan

>  <Num_Not_Resolved_Atoms>  (942) 
nan

$$$$
CHEMBL1513300
     RDKit          3D

  0  0  0  0  0  0  0  0  0  0999 V3000
M  V30 BEGIN CTAB
M  V30 COUNTS 48 52 0 0 0
M  V30 BEGIN ATOM
M  V30 1 C -2.502358 -7.033984 -1.720756 0
M  V30 2 O -1.201533 -7.074110 -2.287744 0
M  V30 3 C -0.311659 -6.018377 -2.135701 0
M  V30 4 C 0.967768 -6.131847 -2.728734 0
M  V30 5 C 1.713892 -5.014689 -2.485263 0
M  V30 6 C 1.483664 -3.861325 -1.814359 0
M  V30 7 C 0.201387 -3.811013 -1.251611 0
M  V30 8 N -0.244909 -2.699184 -0.493333 0
M  V30 9 C 0.515570 -1.586408 -0.053581 0
M  V30 10 N 1.789723 -1.367149 -0.226470 0
M  V30 11 C 2.564742 -0.354527 0.164199 0
M  V30 12 C 1.852486 0.619038 0.876843 0
M  V30 13 N 2.524533 1.700220 1.345985 0
M  V30 14 C 1.815844 2.644667 2.055975 0
M  V30 15 C 2.664459 3.704154 2.493377 0
M  V30 16 C 2.351245 4.719807 3.223416 0
M  V30 17 C 2.943270 5.809683 3.758054 0
M  V30 18 C 4.369199 5.640745 3.266448 0
M  V30 19 S 4.379421 4.017834 2.231266 0
M  V30 20 C 0.489287 2.417659 2.231293 0
M  V30 21 O -0.085986 3.324280 2.886752 0
M  V30 22 N -0.221212 1.373578 1.792523 0
M  V30 23 C -1.591465 1.334370 2.071336 0
M  V30 24 C -2.444238 2.165363 1.342761 0
M  V30 25 C -3.797432 2.229383 1.511205 0
M  V30 26 C -4.420454 1.420683 2.473975 0
M  V30 27 C -3.572022 0.610143 3.182101 0
M  V30 28 C -2.212819 0.548542 3.010360 0
M  V30 29 C 0.484924 0.462897 1.104305 0
M  V30 30 N -0.140569 -0.625737 0.637397 0
M  V30 31 C -0.675593 -4.892693 -1.422823 0
M  V30 32 H -2.920198 -8.070445 -1.736646 0
M  V30 33 H -2.537048 -6.689885 -0.685602 0
M  V30 34 H -3.150866 -6.377090 -2.340978 0
M  V30 35 H 1.302883 -6.973335 -3.288638 0
M  V30 36 H 2.714651 -5.068055 -2.934164 0
M  V30 37 H 2.191480 -3.070013 -1.719863 0
M  V30 38 H -1.264827 -2.713815 -0.232464 0
M  V30 39 H 3.604612 -0.282053 -0.037558 0
M  V30 40 H 1.350955 4.967801 3.653190 0
M  V30 41 H 3.398061 6.668451 4.182463 0
M  V30 42 H 5.563636 5.875449 3.093663 0
M  V30 43 H -1.985792 2.814121 0.580048 0
M  V30 44 H -4.361508 2.922602 0.877300 0
M  V30 45 H -5.472891 1.557671 2.509061 0
M  V30 46 H -4.080348 -0.006823 3.921145 0
M  V30 47 H -1.612934 -0.113150 3.609464 0
M  V30 48 H -1.685006 -4.880644 -0.994894 0
M  V30 END ATOM
M  V30 BEGIN BOND
M  V30 1 1 1 2
M  V30 2 1 2 3
M  V30 3 2 3 4
M  V30 4 1 4 5
M  V30 5 2 5 6
M  V30 6 1 6 7
M  V30 7 1 7 8
M  V30 8 1 8 9
M  V30 9 2 9 10
M  V30 10 1 10 11
M  V30 11 2 11 12
M  V30 12 1 12 13
M  V30 13 2 13 14
M  V30 14 1 14 15
M  V30 15 2 15 16
M  V30 16 1 16 17
M  V30 17 2 17 18
M  V30 18 1 18 19
M  V30 19 1 14 20
M  V30 20 2 20 21
M  V30 21 1 20 22
M  V30 22 1 22 23
M  V30 23 2 23 24
M  V30 24 1 24 25
M  V30 25 2 25 26
M  V30 26 1 26 27
M  V30 27 2 27 28
M  V30 28 1 22 29
M  V30 29 2 29 30
M  V30 30 2 7 31
M  V30 31 1 31 3
M  V30 32 1 30 9
M  V30 33 1 29 12
M  V30 34 1 19 15
M  V30 35 1 28 23
M  V30 36 1 1 32
M  V30 37 1 1 33
M  V30 38 1 1 34
M  V30 39 1 4 35
M  V30 40 1 5 36
M  V30 41 1 6 37
M  V30 42 1 8 38
M  V30 43 1 11 39
M  V30 44 1 16 40
M  V30 45 1 17 41
M  V30 46 1 18 42
M  V30 47 1 24 43
M  V30 48 1 25 44
M  V30 49 1 26 45
M  V30 50 1 27 46
M  V30 51 1 28 47
M  V30 52 1 31 48
M  V30 END BOND
M  V30 END CTAB
M  END
>  <Dataset>  (943) 
ChEMBL_Kinases

>  <Ligand_Instance>  (943) 
nan

>  <PDB_ID>  (943) 
nan

>  <Standardized_SMILES>  (943) 
COc1cccc(Nc2ncc3nc(-c4cccs4)c(=O)n(-c4ccccc4)c3n2)c1

>  <Name>  (943) 
nan

>  <Pocket>  (943) 
nan

>  <ATP_Site>  (943) 
nan

>  <Peripheral>  (943) 
nan

>  <Num_H_Atoms_ProtBoundConf>  (943) 
nan

>  <Num_Resolved_Atoms>  (943) 
nan

>  <Num_Not_Resolved_Atoms>  (943) 
nan

$$$$
CHEMBL1513063
     RDKit          3D

  0  0  0  0  0  0  0  0  0  0999 V3000
M  V30 BEGIN CTAB
M  V30 COUNTS 44 47 0 0 0
M  V30 BEGIN ATOM
M  V30 1 C -0.551839 -3.750624 1.367995 0
M  V30 2 O 0.111372 -2.874355 0.510434 0
M  V30 3 C 1.323621 -3.215609 -0.105264 0
M  V30 4 C 1.969331 -4.426787 0.071153 0
M  V30 5 C 3.162340 -4.698579 -0.566079 0
M  V30 6 C 3.748550 -3.756821 -1.405993 0
M  V30 7 C 3.103923 -2.532717 -1.589432 0
M  V30 8 C 1.905525 -2.270475 -0.944087 0
M  V30 9 C 1.261704 -0.978812 -1.161743 0
M  V30 10 C 1.191730 -0.513632 -2.468154 0
M  V30 11 C 0.590284 0.712494 -2.752202 0
M  V30 12 C 0.057791 1.484090 -1.764556 0
M  V30 13 N -0.529623 2.660177 -1.951781 0
M  V30 14 C -1.048395 3.399096 -0.933375 0
M  V30 15 N -0.948104 2.887487 0.325141 0
M  V30 16 C -0.366392 1.707889 0.569182 0
M  V30 17 N -0.373384 1.360385 1.960026 0
M  V30 18 C -1.008625 0.202993 2.581125 0
M  V30 19 C -2.116081 0.771121 3.454363 0
M  V30 20 N -1.775465 2.027324 4.037480 0
M  V30 21 C -0.349289 2.237038 4.177411 0
M  V30 22 C 0.342203 2.282090 2.825706 0
M  V30 23 C 0.148642 0.984855 -0.482239 0
M  V30 24 C 0.728917 -0.216497 -0.134857 0
M  V30 25 H -0.496626 -4.759602 0.922768 0
M  V30 26 H -0.147656 -3.757731 2.392276 0
M  V30 27 H -1.612343 -3.395848 1.424867 0
M  V30 28 H 1.521260 -5.150630 0.715124 0
M  V30 29 H 3.685334 -5.622672 -0.451005 0
M  V30 30 H 4.680532 -3.909756 -1.932776 0
M  V30 31 H 3.561339 -1.804273 -2.241584 0
M  V30 32 H 1.578096 -1.030815 -3.353245 0
M  V30 33 H 0.527886 1.093164 -3.782731 0
M  V30 34 H -1.527388 4.357480 -1.083088 0
M  V30 35 H -1.414773 -0.492795 1.818578 0
M  V30 36 H -0.312935 -0.371993 3.219602 0
M  V30 37 H -2.985741 0.954795 2.758850 0
M  V30 38 H -2.496800 0.022872 4.178122 0
M  V30 39 H -2.192155 2.198703 4.957893 0
M  V30 40 H 0.137590 1.566963 4.897933 0
M  V30 41 H -0.260411 3.276706 4.599584 0
M  V30 42 H 0.372843 3.287564 2.405485 0
M  V30 43 H 1.417529 1.960911 2.928606 0
M  V30 44 H 0.783572 -0.575991 0.882071 0
M  V30 END ATOM
M  V30 BEGIN BOND
M  V30 1 1 1 2
M  V30 2 1 2 3
M  V30 3 2 3 4
M  V30 4 1 4 5
M  V30 5 2 5 6
M  V30 6 1 6 7
M  V30 7 2 7 8
M  V30 8 1 8 9
M  V30 9 2 9 10
M  V30 10 1 10 11
M  V30 11 2 11 12
M  V30 12 1 12 13
M  V30 13 2 13 14
M  V30 14 1 14 15
M  V30 15 2 15 16
M  V30 16 1 16 17
M  V30 17 1 17 18
M  V30 18 1 18 19
M  V30 19 1 19 20
M  V30 20 1 20 21
M  V30 21 1 21 22
M  V30 22 1 16 23
M  V30 23 2 23 24
M  V30 24 1 8 3
M  V30 25 1 24 9
M  V30 26 1 23 12
M  V30 27 1 22 17
M  V30 28 1 1 25
M  V30 29 1 1 26
M  V30 30 1 1 27
M  V30 31 1 4 28
M  V30 32 1 5 29
M  V30 33 1 6 30
M  V30 34 1 7 31
M  V30 35 1 10 32
M  V30 36 1 11 33
M  V30 37 1 14 34
M  V30 38 1 18 35
M  V30 39 1 18 36
M  V30 40 1 19 37
M  V30 41 1 19 38
M  V30 42 1 20 39
M  V30 43 1 21 40
M  V30 44 1 21 41
M  V30 45 1 22 42
M  V30 46 1 22 43
M  V30 47 1 24 44
M  V30 END BOND
M  V30 END CTAB
M  END
>  <Dataset>  (944) 
ChEMBL_Kinases

>  <Ligand_Instance>  (944) 
nan

>  <PDB_ID>  (944) 
nan

>  <Standardized_SMILES>  (944) 
COc1ccccc1-c1ccc2ncnc(N3CCNCC3)c2c1

>  <Name>  (944) 
nan

>  <Pocket>  (944) 
nan

>  <ATP_Site>  (944) 
nan

>  <Peripheral>  (944) 
nan

>  <Num_H_Atoms_ProtBoundConf>  (944) 
nan

>  <Num_Resolved_Atoms>  (944) 
nan

>  <Num_Not_Resolved_Atoms>  (944) 
nan

$$$$
CHEMBL1505451
     RDKit          3D

  0  0  0  0  0  0  0  0  0  0999 V3000
M  V30 BEGIN CTAB
M  V30 COUNTS 30 31 0 0 0
M  V30 BEGIN ATOM
M  V30 1 O -1.607002 -2.034218 1.507030 0
M  V30 2 C -0.572410 -1.491038 1.973894 0
M  V30 3 N -0.045064 -0.155570 2.055354 0
M  V30 4 N -0.702963 0.966802 1.542038 0
M  V30 5 C -0.422317 1.329204 0.194863 0
M  V30 6 C 0.461764 0.614163 -0.586354 0
M  V30 7 C 0.808247 0.873401 -1.895543 0
M  V30 8 C 0.176781 1.981529 -2.448096 0
M  V30 9 N 0.467348 2.333841 -3.795469 0 CHG=1 VAL=4
M  V30 10 O 1.268466 1.668114 -4.475469 0
M  V30 11 O -0.166675 3.444259 -4.340369 0 CHG=-1 VAL=1
M  V30 12 C -0.719411 2.748320 -1.733993 0
M  V30 13 C -1.013351 2.420633 -0.423102 0
M  V30 14 C 0.144127 -2.640232 2.523199 0
M  V30 15 C 0.416752 -2.711616 3.892177 0
M  V30 16 C 1.078513 -3.731657 4.532846 0
M  V30 17 C 1.505209 -4.774941 3.725212 0
M  V30 18 C 1.277026 -4.777053 2.383428 0
M  V30 19 C 0.606930 -3.722317 1.803102 0
M  V30 20 Cl 0.291618 -3.690069 0.062185 0
M  V30 21 H 0.880525 -0.106080 2.536890 0
M  V30 22 H -1.390515 1.574672 2.058413 0
M  V30 23 H 0.936786 -0.252238 -0.108822 0
M  V30 24 H 1.513493 0.248733 -2.417506 0
M  V30 25 H -1.194163 3.596344 -2.178172 0
M  V30 26 H -1.718849 2.992997 0.196464 0
M  V30 27 H 0.061558 -1.866705 4.487700 0
M  V30 28 H 1.236525 -3.686055 5.602169 0
M  V30 29 H 2.029717 -5.596020 4.193619 0
M  V30 30 H 1.594210 -5.574346 1.715218 0
M  V30 END ATOM
M  V30 BEGIN BOND
M  V30 1 2 1 2
M  V30 2 1 2 3
M  V30 3 1 3 4
M  V30 4 1 4 5
M  V30 5 2 5 6
M  V30 6 1 6 7
M  V30 7 2 7 8
M  V30 8 1 8 9
M  V30 9 2 9 10
M  V30 10 1 9 11
M  V30 11 1 8 12
M  V30 12 2 12 13
M  V30 13 1 2 14
M  V30 14 2 14 15
M  V30 15 1 15 16
M  V30 16 2 16 17
M  V30 17 1 17 18
M  V30 18 2 18 19
M  V30 19 1 19 20
M  V30 20 1 13 5
M  V30 21 1 19 14
M  V30 22 1 3 21
M  V30 23 1 4 22
M  V30 24 1 6 23
M  V30 25 1 7 24
M  V30 26 1 12 25
M  V30 27 1 13 26
M  V30 28 1 15 27
M  V30 29 1 16 28
M  V30 30 1 17 29
M  V30 31 1 18 30
M  V30 END BOND
M  V30 END CTAB
M  END
>  <Dataset>  (945) 
ChEMBL_Kinases

>  <Ligand_Instance>  (945) 
nan

>  <PDB_ID>  (945) 
nan

>  <Standardized_SMILES>  (945) 
O=C(NNc1ccc([N+](=O)[O-])cc1)c1ccccc1Cl

>  <Name>  (945) 
nan

>  <Pocket>  (945) 
nan

>  <ATP_Site>  (945) 
nan

>  <Peripheral>  (945) 
nan

>  <Num_H_Atoms_ProtBoundConf>  (945) 
nan

>  <Num_Resolved_Atoms>  (945) 
nan

>  <Num_Not_Resolved_Atoms>  (945) 
nan

$$$$
CHEMBL1511037
     RDKit          3D

  0  0  0  0  0  0  0  0  0  0999 V3000
M  V30 BEGIN CTAB
M  V30 COUNTS 45 48 0 0 0
M  V30 BEGIN ATOM
M  V30 1 C -0.093017 -4.464316 3.321181 0
M  V30 2 C -0.316081 -3.152979 2.624235 0
M  V30 3 C 0.399781 -1.964343 2.788884 0
M  V30 4 C -0.112865 -0.986804 1.961765 0
M  V30 5 C 0.463150 0.346348 1.987298 0
M  V30 6 C 0.841338 1.070866 0.947283 0
M  V30 7 S 0.781230 0.672180 -0.794944 0
M  V30 8 C 1.285185 2.281266 -1.377789 0
M  V30 9 S 1.297091 2.624250 -2.953919 0
M  V30 10 N 1.614961 3.030696 -0.212631 0
M  V30 11 C 2.133158 4.376052 -0.391404 0
M  V30 12 C 3.598955 4.451928 -0.465837 0
M  V30 13 C 4.518854 4.625349 0.573582 0
M  V30 14 C 5.772877 4.628050 -0.043838 0
M  V30 15 C 5.557054 4.459855 -1.392808 0
M  V30 16 O 4.273131 4.360225 -1.607938 0
M  V30 17 C 1.392912 2.418845 1.014507 0
M  V30 18 O 1.652202 2.994810 2.114594 0
M  V30 19 C -1.151392 -1.601765 1.293059 0
M  V30 20 C -2.016093 -0.929879 0.309889 0
M  V30 21 N -1.255009 -2.887488 1.701491 0
M  V30 22 C -2.205114 -3.849209 1.252101 0
M  V30 23 C -2.991594 -4.685022 2.059178 0
M  V30 24 C -3.866028 -5.563587 1.428142 0
M  V30 25 C -3.977264 -5.632145 0.056515 0
M  V30 26 C -3.203099 -4.807972 -0.762835 0
M  V30 27 C -2.343021 -3.945478 -0.115029 0
M  V30 28 H 0.980804 -4.508007 3.674528 0
M  V30 29 H -0.160383 -5.316202 2.591073 0
M  V30 30 H -0.726559 -4.570397 4.202748 0
M  V30 31 H 1.219011 -1.956521 3.505401 0
M  V30 32 H 0.583517 0.779140 2.982800 0
M  V30 33 H 1.705720 4.850079 -1.322627 0
M  V30 34 H 1.795922 5.053780 0.424788 0
M  V30 35 H 4.300074 4.731923 1.617051 0
M  V30 36 H 6.733557 4.739469 0.423762 0
M  V30 37 H 6.287680 4.409689 -2.198203 0
M  V30 38 H -3.064861 -1.360224 0.360953 0
M  V30 39 H -2.182012 0.156572 0.576215 0
M  V30 40 H -1.651550 -0.945928 -0.727807 0
M  V30 41 H -2.847783 -4.570682 3.114750 0
M  V30 42 H -4.426322 -6.163203 2.142162 0
M  V30 43 H -4.700143 -6.360281 -0.327515 0
M  V30 44 H -3.312334 -4.885728 -1.834542 0
M  V30 45 H -1.756806 -3.326216 -0.800123 0
M  V30 END ATOM
M  V30 BEGIN BOND
M  V30 1 1 1 2
M  V30 2 2 2 3
M  V30 3 1 3 4
M  V30 4 1 4 5
M  V30 5 2 5 6
M  V30 6 1 6 7
M  V30 7 1 7 8
M  V30 8 2 8 9
M  V30 9 1 8 10
M  V30 10 1 10 11
M  V30 11 1 11 12
M  V30 12 2 12 13
M  V30 13 1 13 14
M  V30 14 2 14 15
M  V30 15 1 15 16
M  V30 16 1 10 17
M  V30 17 2 17 18
M  V30 18 2 4 19
M  V30 19 1 19 20
M  V30 20 1 19 21
M  V30 21 1 21 22
M  V30 22 2 22 23
M  V30 23 1 23 24
M  V30 24 2 24 25
M  V30 25 1 25 26
M  V30 26 2 26 27
M  V30 27 1 21 2
M  V30 28 1 27 22
M  V30 29 1 17 6
M  V30 30 1 16 12
M  V30 31 1 1 28
M  V30 32 1 1 29
M  V30 33 1 1 30
M  V30 34 1 3 31
M  V30 35 1 5 32
M  V30 36 1 11 33
M  V30 37 1 11 34
M  V30 38 1 13 35
M  V30 39 1 14 36
M  V30 40 1 15 37
M  V30 41 1 20 38
M  V30 42 1 20 39
M  V30 43 1 20 40
M  V30 44 1 23 41
M  V30 45 1 24 42
M  V30 46 1 25 43
M  V30 47 1 26 44
M  V30 48 1 27 45
M  V30 END BOND
M  V30 END CTAB
M  END
>  <Dataset>  (946) 
ChEMBL_Kinases

>  <Ligand_Instance>  (946) 
nan

>  <PDB_ID>  (946) 
nan

>  <Standardized_SMILES>  (946) 
Cc1cc(/C=C2\SC(=S)N(Cc3ccco3)C2=O)c(C)n1-c1ccccc1

>  <Name>  (946) 
nan

>  <Pocket>  (946) 
nan

>  <ATP_Site>  (946) 
nan

>  <Peripheral>  (946) 
nan

>  <Num_H_Atoms_ProtBoundConf>  (946) 
nan

>  <Num_Resolved_Atoms>  (946) 
nan

>  <Num_Not_Resolved_Atoms>  (946) 
nan

$$$$
CHEMBL1511099
     RDKit          3D

  0  0  0  0  0  0  0  0  0  0999 V3000
M  V30 BEGIN CTAB
M  V30 COUNTS 44 47 0 0 0
M  V30 BEGIN ATOM
M  V30 1 O 4.869363 -1.125689 3.829980 0
M  V30 2 S 3.580126 -1.626871 3.232994 0
M  V30 3 O 2.942922 -2.466521 4.328604 0
M  V30 4 C 3.889461 -2.535219 1.821369 0
M  V30 5 C 4.987524 -2.852141 1.101212 0
M  V30 6 C 4.899957 -3.628885 -0.025014 0
M  V30 7 C 3.614335 -4.081837 -0.397954 0
M  V30 8 S 2.487748 -3.383964 0.890991 0
M  V30 9 N 2.546398 -0.321052 2.913968 0
M  V30 10 C 1.246124 -0.633201 2.435633 0
M  V30 11 C 0.568454 0.686489 2.114665 0
M  V30 12 N 1.107536 1.272193 0.939511 0
M  V30 13 C 0.612152 0.729068 -0.293923 0
M  V30 14 C -0.821501 0.832203 -0.521615 0
M  V30 15 N -1.421604 1.863413 -1.130482 0
M  V30 16 C -2.747412 1.847070 -1.282941 0
M  V30 17 O -3.408499 2.890487 -1.905560 0
M  V30 18 C -3.540744 0.802944 -0.836524 0
M  V30 19 C -4.898340 0.763817 -0.980953 0
M  V30 20 C -5.617812 -0.314571 -0.507712 0
M  V30 21 Br -7.510316 -0.419865 -0.682665 0
M  V30 22 C -4.980351 -1.371656 0.119147 0
M  V30 23 C -3.604465 -1.341012 0.270205 0
M  V30 24 Br -2.603117 -2.744191 1.121136 0
M  V30 25 C -2.887083 -0.241426 -0.214310 0
M  V30 26 N -1.549714 -0.215048 -0.065666 0
M  V30 27 C 2.535780 1.111592 0.918267 0
M  V30 28 C 3.178014 0.773390 2.212502 0
M  V30 29 H 5.910616 -2.449176 1.483712 0
M  V30 30 H 5.750214 -3.905026 -0.628017 0
M  V30 31 H 3.367428 -4.683280 -1.228848 0
M  V30 32 H 1.202164 -1.344173 1.616363 0
M  V30 33 H 0.654210 -1.070680 3.287664 0
M  V30 34 H 0.855790 1.370842 2.966757 0
M  V30 35 H -0.525363 0.648038 2.162526 0
M  V30 36 H 0.955326 -0.311514 -0.443657 0
M  V30 37 H 1.116090 1.322390 -1.110576 0
M  V30 38 H -3.827508 3.588272 -1.272871 0
M  V30 39 H -5.404255 1.585730 -1.469588 0
M  V30 40 H -5.486773 -2.251632 0.515101 0
M  V30 41 H 2.948187 2.112025 0.600088 0
M  V30 42 H 2.872851 0.371481 0.135442 0
M  V30 43 H 4.212390 0.423842 1.975645 0
M  V30 44 H 3.321583 1.652524 2.882981 0
M  V30 END ATOM
M  V30 BEGIN BOND
M  V30 1 2 1 2
M  V30 2 2 2 3
M  V30 3 1 2 4
M  V30 4 2 4 5
M  V30 5 1 5 6
M  V30 6 2 6 7
M  V30 7 1 7 8
M  V30 8 1 2 9
M  V30 9 1 9 10
M  V30 10 1 10 11
M  V30 11 1 11 12
M  V30 12 1 12 13
M  V30 13 1 13 14
M  V30 14 2 14 15
M  V30 15 1 15 16
M  V30 16 1 16 17
M  V30 17 2 16 18
M  V30 18 1 18 19
M  V30 19 2 19 20
M  V30 20 1 20 21
M  V30 21 1 20 22
M  V30 22 2 22 23
M  V30 23 1 23 24
M  V30 24 1 23 25
M  V30 25 2 25 26
M  V30 26 1 12 27
M  V30 27 1 27 28
M  V30 28 1 8 4
M  V30 29 1 28 9
M  V30 30 1 26 14
M  V30 31 1 25 18
M  V30 32 1 5 29
M  V30 33 1 6 30
M  V30 34 1 7 31
M  V30 35 1 10 32
M  V30 36 1 10 33
M  V30 37 1 11 34
M  V30 38 1 11 35
M  V30 39 1 13 36
M  V30 40 1 13 37
M  V30 41 1 17 38
M  V30 42 1 19 39
M  V30 43 1 22 40
M  V30 44 1 27 41
M  V30 45 1 27 42
M  V30 46 1 28 43
M  V30 47 1 28 44
M  V30 END BOND
M  V30 END CTAB
M  END
>  <Dataset>  (947) 
ChEMBL_Kinases

>  <Ligand_Instance>  (947) 
nan

>  <PDB_ID>  (947) 
nan

>  <Standardized_SMILES>  (947) 
O=S(=O)(c1cccs1)N1CCN(Cc2nc(O)c3cc(Br)cc(Br)c3n2)CC1

>  <Name>  (947) 
nan

>  <Pocket>  (947) 
nan

>  <ATP_Site>  (947) 
nan

>  <Peripheral>  (947) 
nan

>  <Num_H_Atoms_ProtBoundConf>  (947) 
nan

>  <Num_Resolved_Atoms>  (947) 
nan

>  <Num_Not_Resolved_Atoms>  (947) 
nan

$$$$
CHEMBL1511176
     RDKit          3D

  0  0  0  0  0  0  0  0  0  0999 V3000
M  V30 BEGIN CTAB
M  V30 COUNTS 56 58 0 0 0
M  V30 BEGIN ATOM
M  V30 1 C 3.664296 -1.389814 -1.647143 0
M  V30 2 C 3.002642 -1.956311 -0.411209 0
M  V30 3 O 1.695078 -1.478428 -0.366915 0
M  V30 4 C 0.772961 -1.761638 0.596125 0
M  V30 5 O 1.694991 -2.473512 1.127788 0
M  V30 6 C -0.610113 -1.389046 0.840747 0
M  V30 7 C -0.942254 -0.287616 1.598249 0
M  V30 8 C -0.183049 0.745951 2.307661 0
M  V30 9 S 0.476305 2.026504 1.313625 0
M  V30 10 O 1.445473 1.489097 0.307438 0
M  V30 11 O -0.571005 2.773613 0.546090 0
M  V30 12 C 1.334242 3.140330 2.386328 0
M  V30 13 C 2.669478 2.882231 2.613701 0
M  V30 14 C 3.360893 3.730949 3.443201 0
M  V30 15 C 2.749661 4.814368 4.038496 0
M  V30 16 C 1.410188 5.045153 3.789973 0
M  V30 17 C 0.683600 4.214037 2.962333 0
M  V30 18 N -2.310311 -0.243360 1.616979 0
M  V30 19 C -3.162894 0.729512 2.281610 0
M  V30 20 C -2.801945 -1.290132 0.889551 0
M  V30 21 C -4.134996 -1.635398 0.634502 0
M  V30 22 C -4.381499 -2.755261 -0.146155 0
M  V30 23 Br -6.186688 -3.216780 -0.487587 0
M  V30 24 C -3.307651 -3.466289 -0.627677 0
M  V30 25 O -3.653564 -4.552553 -1.383002 0
M  V30 26 C -1.979279 -3.164451 -0.403305 0
M  V30 27 C -0.841600 -3.917172 -0.942074 0
M  V30 28 N -0.475033 -3.647519 -2.286440 0
M  V30 29 C -1.407011 -3.897577 -3.314707 0
M  V30 30 C 0.853086 -4.021888 -2.640017 0
M  V30 31 C -1.737703 -2.035021 0.384397 0
M  V30 32 H 2.870876 -1.185571 -2.390897 0
M  V30 33 H 4.123411 -0.417160 -1.371175 0
M  V30 34 H 4.409000 -2.108921 -2.068602 0
M  V30 35 H 3.610290 -1.745785 0.502437 0
M  V30 36 H 3.035005 -3.071872 -0.522278 0
M  V30 37 H 0.703965 0.274127 2.834387 0
M  V30 38 H -0.749806 1.219163 3.133326 0
M  V30 39 H 3.157176 2.025547 2.144552 0
M  V30 40 H 4.418389 3.474296 3.585532 0
M  V30 41 H 3.369237 5.446416 4.688606 0
M  V30 42 H 0.938176 5.906145 4.267377 0
M  V30 43 H -0.374548 4.388361 2.760204 0
M  V30 44 H -2.776945 1.051118 3.266984 0
M  V30 45 H -4.150176 0.281111 2.477717 0
M  V30 46 H -3.326768 1.557438 1.579659 0
M  V30 47 H -4.963851 -1.061682 1.023584 0
M  V30 48 H -4.257606 -4.417502 -2.184324 0
M  V30 49 H -1.236072 -4.995988 -0.979275 0
M  V30 50 H 0.023391 -4.030828 -0.270757 0
M  V30 51 H -2.303246 -3.280166 -3.362888 0
M  V30 52 H -1.743185 -4.971713 -3.263494 0
M  V30 53 H -0.940848 -3.821891 -4.336008 0
M  V30 54 H 1.320998 -4.732344 -1.954830 0
M  V30 55 H 1.505567 -3.114447 -2.789937 0
M  V30 56 H 0.834772 -4.485696 -3.669616 0
M  V30 END ATOM
M  V30 BEGIN BOND
M  V30 1 1 1 2
M  V30 2 1 2 3
M  V30 3 1 3 4
M  V30 4 2 4 5
M  V30 5 1 4 6
M  V30 6 2 6 7
M  V30 7 1 7 8
M  V30 8 1 8 9
M  V30 9 2 9 10
M  V30 10 2 9 11
M  V30 11 1 9 12
M  V30 12 2 12 13
M  V30 13 1 13 14
M  V30 14 2 14 15
M  V30 15 1 15 16
M  V30 16 2 16 17
M  V30 17 1 7 18
M  V30 18 1 18 19
M  V30 19 1 18 20
M  V30 20 2 20 21
M  V30 21 1 21 22
M  V30 22 1 22 23
M  V30 23 2 22 24
M  V30 24 1 24 25
M  V30 25 1 24 26
M  V30 26 1 26 27
M  V30 27 1 27 28
M  V30 28 1 28 29
M  V30 29 1 28 30
M  V30 30 2 26 31
M  V30 31 1 31 6
M  V30 32 1 17 12
M  V30 33 1 31 20
M  V30 34 1 1 32
M  V30 35 1 1 33
M  V30 36 1 1 34
M  V30 37 1 2 35
M  V30 38 1 2 36
M  V30 39 1 8 37
M  V30 40 1 8 38
M  V30 41 1 13 39
M  V30 42 1 14 40
M  V30 43 1 15 41
M  V30 44 1 16 42
M  V30 45 1 17 43
M  V30 46 1 19 44
M  V30 47 1 19 45
M  V30 48 1 19 46
M  V30 49 1 21 47
M  V30 50 1 25 48
M  V30 51 1 27 49
M  V30 52 1 27 50
M  V30 53 1 29 51
M  V30 54 1 29 52
M  V30 55 1 29 53
M  V30 56 1 30 54
M  V30 57 1 30 55
M  V30 58 1 30 56
M  V30 END BOND
M  V30 END CTAB
M  END
>  <Dataset>  (948) 
ChEMBL_Kinases

>  <Ligand_Instance>  (948) 
nan

>  <PDB_ID>  (948) 
nan

>  <Standardized_SMILES>  (948) 
CCOC(=O)c1c(CS(=O)(=O)c2ccccc2)n(C)c2cc(Br)c(O)c(CN(C)C)c12

>  <Name>  (948) 
nan

>  <Pocket>  (948) 
nan

>  <ATP_Site>  (948) 
nan

>  <Peripheral>  (948) 
nan

>  <Num_H_Atoms_ProtBoundConf>  (948) 
nan

>  <Num_Resolved_Atoms>  (948) 
nan

>  <Num_Not_Resolved_Atoms>  (948) 
nan

$$$$
CHEMBL1511212
     RDKit          3D

  0  0  0  0  0  0  0  0  0  0999 V3000
M  V30 BEGIN CTAB
M  V30 COUNTS 38 40 0 0 0
M  V30 BEGIN ATOM
M  V30 1 C 0.414396 -5.175862 4.699278 0
M  V30 2 O 1.448252 -4.221927 4.603008 0
M  V30 3 C 1.401613 -3.097827 3.804673 0
M  V30 4 C 2.505697 -2.267526 3.836733 0
M  V30 5 C 2.606634 -1.093736 3.084354 0
M  V30 6 C 1.552808 -0.739024 2.264300 0
M  V30 7 C 1.557802 0.462693 1.443895 0
M  V30 8 N 2.530776 1.373563 1.329746 0
M  V30 9 C 2.216941 2.362169 0.487588 0
M  V30 10 C 2.947363 3.525497 0.069906 0
M  V30 11 N 3.525817 4.459584 -0.283944 0
M  V30 12 C 0.951971 2.036200 0.047819 0
M  V30 13 N 0.069402 2.678963 -0.858519 0
M  V30 14 C -1.255382 2.659887 -1.453459 0
M  V30 15 C -1.542284 1.244346 -1.904738 0
M  V30 16 C -1.222397 0.823382 -3.195502 0
M  V30 17 C -1.441234 -0.511692 -3.551346 0
M  V30 18 C -1.971826 -1.370328 -2.599850 0
M  V30 19 C -2.303954 -0.985578 -1.305009 0
M  V30 20 C -2.069907 0.336951 -1.007390 0
M  V30 21 Cl -2.580577 0.776795 0.628469 0
M  V30 22 O 0.635119 0.919661 0.646836 0
M  V30 23 C 0.437950 -1.547974 2.211677 0
M  V30 24 C 0.367443 -2.708723 2.971890 0
M  V30 25 H -0.218739 -5.021261 5.607752 0
M  V30 26 H -0.288080 -5.147993 3.839713 0
M  V30 27 H 0.900483 -6.180991 4.714373 0
M  V30 28 H 3.403463 -2.445439 4.448743 0
M  V30 29 H 3.487953 -0.449708 3.122580 0
M  V30 30 H 0.574252 3.514221 -1.269564 0
M  V30 31 H -1.977748 2.852596 -0.623881 0
M  V30 32 H -1.366784 3.356790 -2.281075 0
M  V30 33 H -0.810863 1.519791 -3.910739 0
M  V30 34 H -1.209262 -0.885271 -4.536888 0
M  V30 35 H -2.134198 -2.412976 -2.899817 0
M  V30 36 H -2.711710 -1.731855 -0.641575 0
M  V30 37 H -0.455736 -1.374023 1.599981 0
M  V30 38 H -0.500734 -3.354510 2.942161 0
M  V30 END ATOM
M  V30 BEGIN BOND
M  V30 1 1 1 2
M  V30 2 1 2 3
M  V30 3 2 3 4
M  V30 4 1 4 5
M  V30 5 2 5 6
M  V30 6 1 6 7
M  V30 7 2 7 8
M  V30 8 1 8 9
M  V30 9 1 9 10
M  V30 10 3 10 11
M  V30 11 2 9 12
M  V30 12 1 12 13
M  V30 13 1 13 14
M  V30 14 1 14 15
M  V30 15 2 15 16
M  V30 16 1 16 17
M  V30 17 2 17 18
M  V30 18 1 18 19
M  V30 19 2 19 20
M  V30 20 1 20 21
M  V30 21 1 12 22
M  V30 22 1 6 23
M  V30 23 2 23 24
M  V30 24 1 24 3
M  V30 25 1 22 7
M  V30 26 1 20 15
M  V30 27 1 1 25
M  V30 28 1 1 26
M  V30 29 1 1 27
M  V30 30 1 4 28
M  V30 31 1 5 29
M  V30 32 1 13 30
M  V30 33 1 14 31
M  V30 34 1 14 32
M  V30 35 1 16 33
M  V30 36 1 17 34
M  V30 37 1 18 35
M  V30 38 1 19 36
M  V30 39 1 23 37
M  V30 40 1 24 38
M  V30 END BOND
M  V30 END CTAB
M  END
>  <Dataset>  (949) 
ChEMBL_Kinases

>  <Ligand_Instance>  (949) 
nan

>  <PDB_ID>  (949) 
nan

>  <Standardized_SMILES>  (949) 
COc1ccc(-c2nc(C#N)c(NCc3ccccc3Cl)o2)cc1

>  <Name>  (949) 
nan

>  <Pocket>  (949) 
nan

>  <ATP_Site>  (949) 
nan

>  <Peripheral>  (949) 
nan

>  <Num_H_Atoms_ProtBoundConf>  (949) 
nan

>  <Num_Resolved_Atoms>  (949) 
nan

>  <Num_Not_Resolved_Atoms>  (949) 
nan

$$$$
CHEMBL1511432
     RDKit          3D

  0  0  0  0  0  0  0  0  0  0999 V3000
M  V30 BEGIN CTAB
M  V30 COUNTS 63 66 0 0 0
M  V30 BEGIN ATOM
M  V30 1 O 0.239398 0.227765 2.962195 0
M  V30 2 C 1.214789 -0.542629 3.063919 0
M  V30 3 C 2.542330 -0.634769 3.739335 0
M  V30 4 C 2.818415 0.592737 4.579549 0
M  V30 5 C 2.824174 1.848517 3.748767 0
M  V30 6 C 3.865308 1.819489 2.676207 0
M  V30 7 C 3.865385 3.083497 1.849571 0
M  V30 8 N 2.635213 3.350124 1.177817 0
M  V30 9 C 1.445071 4.064977 1.503097 0
M  V30 10 O 1.321947 4.646572 2.615752 0
M  V30 11 C 0.473406 4.011253 0.413549 0
M  V30 12 C -0.789642 4.575618 0.345836 0
M  V30 13 C -1.497558 4.361521 -0.819967 0
M  V30 14 C -0.954990 3.628424 -1.834195 0
M  V30 15 C 0.318887 3.063950 -1.755844 0
M  V30 16 C 1.042520 3.266979 -0.597812 0
M  V30 17 C 2.367513 2.852317 -0.149513 0
M  V30 18 O 3.111249 2.154811 -0.886190 0
M  V30 19 N 0.973609 -1.697588 2.283361 0
M  V30 20 C -0.220185 -1.903979 1.513602 0
M  V30 21 C -1.357493 -2.532229 2.031644 0
M  V30 22 C -2.479727 -2.705141 1.246764 0
M  V30 23 C -2.508192 -2.265174 -0.061493 0
M  V30 24 S -3.859505 -2.419025 -1.164663 0
M  V30 25 O -5.149724 -2.445633 -0.411555 0
M  V30 26 O -3.806246 -1.307623 -2.164809 0
M  V30 27 N -3.702404 -3.913432 -2.004457 0
M  V30 28 C -2.494796 -3.972946 -2.787401 0
M  V30 29 C -2.526851 -5.298154 -3.554845 0
M  V30 30 C -2.368169 -6.462720 -2.591529 0
M  V30 31 C -2.594544 -5.944021 -1.167939 0
M  V30 32 C -3.809411 -5.052225 -1.122122 0
M  V30 33 C -1.348577 -1.643528 -0.534807 0
M  V30 34 C -0.199037 -1.443883 0.203860 0
M  V30 35 H 2.550915 -1.557099 4.337092 0
M  V30 36 H 3.346810 -0.731465 3.001687 0
M  V30 37 H 3.843214 0.461100 4.988002 0
M  V30 38 H 2.131267 0.699452 5.426273 0
M  V30 39 H 3.062545 2.694761 4.425136 0
M  V30 40 H 1.799049 2.046314 3.350097 0
M  V30 41 H 3.777676 0.976824 1.975602 0
M  V30 42 H 4.857386 1.716088 3.160442 0
M  V30 43 H 4.103771 3.945856 2.537173 0
M  V30 44 H 4.693887 3.089288 1.113713 0
M  V30 45 H -1.218889 5.157889 1.153106 0
M  V30 46 H -2.490838 4.755177 -0.979873 0
M  V30 47 H -1.466987 3.427349 -2.775685 0
M  V30 48 H 0.764013 2.480413 -2.549825 0
M  V30 49 H 1.534432 -2.571716 2.099760 0
M  V30 50 H -1.340873 -2.876018 3.047487 0
M  V30 51 H -3.367506 -3.179527 1.604783 0
M  V30 52 H -1.580297 -3.875788 -2.169086 0
M  V30 53 H -2.550033 -3.146426 -3.524264 0
M  V30 54 H -3.530872 -5.378798 -4.010545 0
M  V30 55 H -1.777041 -5.327346 -4.354084 0
M  V30 56 H -3.057290 -7.280548 -2.840705 0
M  V30 57 H -1.337442 -6.870990 -2.616785 0
M  V30 58 H -1.685582 -5.425890 -0.850336 0
M  V30 59 H -2.750468 -6.838592 -0.540840 0
M  V30 60 H -3.998221 -4.760377 -0.086921 0
M  V30 61 H -4.672334 -5.683105 -1.453573 0
M  V30 62 H -1.338739 -1.283807 -1.566498 0
M  V30 63 H 0.650819 -0.959437 -0.226721 0
M  V30 END ATOM
M  V30 BEGIN BOND
M  V30 1 2 1 2
M  V30 2 1 2 3
M  V30 3 1 3 4
M  V30 4 1 4 5
M  V30 5 1 5 6
M  V30 6 1 6 7
M  V30 7 1 7 8
M  V30 8 1 8 9
M  V30 9 2 9 10
M  V30 10 1 9 11
M  V30 11 2 11 12
M  V30 12 1 12 13
M  V30 13 2 13 14
M  V30 14 1 14 15
M  V30 15 2 15 16
M  V30 16 1 16 17
M  V30 17 2 17 18
M  V30 18 1 2 19
M  V30 19 1 19 20
M  V30 20 2 20 21
M  V30 21 1 21 22
M  V30 22 2 22 23
M  V30 23 1 23 24
M  V30 24 2 24 25
M  V30 25 2 24 26
M  V30 26 1 24 27
M  V30 27 1 27 28
M  V30 28 1 28 29
M  V30 29 1 29 30
M  V30 30 1 30 31
M  V30 31 1 31 32
M  V30 32 1 23 33
M  V30 33 2 33 34
M  V30 34 1 17 8
M  V30 35 1 34 20
M  V30 36 1 16 11
M  V30 37 1 32 27
M  V30 38 1 3 35
M  V30 39 1 3 36
M  V30 40 1 4 37
M  V30 41 1 4 38
M  V30 42 1 5 39
M  V30 43 1 5 40
M  V30 44 1 6 41
M  V30 45 1 6 42
M  V30 46 1 7 43
M  V30 47 1 7 44
M  V30 48 1 12 45
M  V30 49 1 13 46
M  V30 50 1 14 47
M  V30 51 1 15 48
M  V30 52 1 19 49
M  V30 53 1 21 50
M  V30 54 1 22 51
M  V30 55 1 28 52
M  V30 56 1 28 53
M  V30 57 1 29 54
M  V30 58 1 29 55
M  V30 59 1 30 56
M  V30 60 1 30 57
M  V30 61 1 31 58
M  V30 62 1 31 59
M  V30 63 1 32 60
M  V30 64 1 32 61
M  V30 65 1 33 62
M  V30 66 1 34 63
M  V30 END BOND
M  V30 END CTAB
M  END
>  <Dataset>  (950) 
ChEMBL_Kinases

>  <Ligand_Instance>  (950) 
nan

>  <PDB_ID>  (950) 
nan

>  <Standardized_SMILES>  (950) 
O=C(CCCCCN1C(=O)c2ccccc2C1=O)Nc1ccc(S(=O)(=O)N2CCCCC2)cc1

>  <Name>  (950) 
nan

>  <Pocket>  (950) 
nan

>  <ATP_Site>  (950) 
nan

>  <Peripheral>  (950) 
nan

>  <Num_H_Atoms_ProtBoundConf>  (950) 
nan

>  <Num_Resolved_Atoms>  (950) 
nan

>  <Num_Not_Resolved_Atoms>  (950) 
nan

$$$$
CHEMBL1511483
     RDKit          3D

  0  0  0  0  0  0  0  0  0  0999 V3000
M  V30 BEGIN CTAB
M  V30 COUNTS 40 42 0 0 0
M  V30 BEGIN ATOM
M  V30 1 C -0.034269 -4.616856 0.167022 0
M  V30 2 O 0.471142 -3.372212 -0.244651 0
M  V30 3 C 1.768501 -3.126242 -0.594624 0
M  V30 4 C 2.628826 -4.202721 -0.529626 0
M  V30 5 C 3.952098 -4.017163 -0.870930 0
M  V30 6 C 4.342260 -2.757567 -1.260318 0
M  V30 7 C 3.452734 -1.727081 -1.307742 0
M  V30 8 C 2.100401 -1.869398 -0.970283 0
M  V30 9 C 1.263078 -0.711906 -1.059951 0
M  V30 10 O 1.765737 0.402690 -1.439758 0
M  V30 11 N -0.100159 -0.539464 -0.795641 0
M  V30 12 C -0.729509 0.720512 -0.955858 0
M  V30 13 C -0.238818 1.861174 -0.151619 0
M  V30 14 N -0.321398 1.682133 1.268163 0
M  V30 15 C 0.662080 1.142996 2.022032 0
M  V30 16 C 0.297842 1.097020 3.366782 0
M  V30 17 C -0.971598 1.639252 3.409588 0
M  V30 18 C -1.870717 1.872501 4.436897 0
M  V30 19 C -3.103852 2.447449 4.159736 0
M  V30 20 C -3.462942 2.797950 2.868731 0
M  V30 21 C -2.576349 2.570388 1.839617 0
M  V30 22 C -1.336887 1.991526 2.124570 0
M  V30 23 H -1.138274 -4.601979 0.152159 0
M  V30 24 H 0.382933 -4.790417 1.187367 0
M  V30 25 H 0.305304 -5.425942 -0.510034 0
M  V30 26 H 2.316263 -5.184557 -0.224205 0
M  V30 27 H 4.658124 -4.830653 -0.834350 0
M  V30 28 H 5.370529 -2.598218 -1.529163 0
M  V30 29 H 3.843848 -0.751280 -1.629326 0
M  V30 30 H -0.610989 -1.391434 -0.477366 0
M  V30 31 H -0.730085 1.067009 -2.032480 0
M  V30 32 H -1.809275 0.589359 -0.732811 0
M  V30 33 H 0.743718 2.259285 -0.473835 0
M  V30 34 H -0.948381 2.713357 -0.376292 0
M  V30 35 H 1.633406 0.772247 1.697446 0
M  V30 36 H 0.888488 0.717042 4.190955 0
M  V30 37 H -1.607224 1.604454 5.456058 0
M  V30 38 H -3.837603 2.649538 4.920500 0
M  V30 39 H -4.421008 3.248382 2.628742 0
M  V30 40 H -2.794496 2.820380 0.810325 0
M  V30 END ATOM
M  V30 BEGIN BOND
M  V30 1 1 1 2
M  V30 2 1 2 3
M  V30 3 2 3 4
M  V30 4 1 4 5
M  V30 5 2 5 6
M  V30 6 1 6 7
M  V30 7 2 7 8
M  V30 8 1 8 9
M  V30 9 2 9 10
M  V30 10 1 9 11
M  V30 11 1 11 12
M  V30 12 1 12 13
M  V30 13 1 13 14
M  V30 14 1 14 15
M  V30 15 2 15 16
M  V30 16 1 16 17
M  V30 17 2 17 18
M  V30 18 1 18 19
M  V30 19 2 19 20
M  V30 20 1 20 21
M  V30 21 2 21 22
M  V30 22 1 8 3
M  V30 23 1 22 14
M  V30 24 1 22 17
M  V30 25 1 1 23
M  V30 26 1 1 24
M  V30 27 1 1 25
M  V30 28 1 4 26
M  V30 29 1 5 27
M  V30 30 1 6 28
M  V30 31 1 7 29
M  V30 32 1 11 30
M  V30 33 1 12 31
M  V30 34 1 12 32
M  V30 35 1 13 33
M  V30 36 1 13 34
M  V30 37 1 15 35
M  V30 38 1 16 36
M  V30 39 1 18 37
M  V30 40 1 19 38
M  V30 41 1 20 39
M  V30 42 1 21 40
M  V30 END BOND
M  V30 END CTAB
M  END
>  <Dataset>  (951) 
ChEMBL_Kinases

>  <Ligand_Instance>  (951) 
nan

>  <PDB_ID>  (951) 
nan

>  <Standardized_SMILES>  (951) 
COc1ccccc1C(=O)NCCn1ccc2ccccc21

>  <Name>  (951) 
nan

>  <Pocket>  (951) 
nan

>  <ATP_Site>  (951) 
nan

>  <Peripheral>  (951) 
nan

>  <Num_H_Atoms_ProtBoundConf>  (951) 
nan

>  <Num_Resolved_Atoms>  (951) 
nan

>  <Num_Not_Resolved_Atoms>  (951) 
nan

$$$$
CHEMBL1511584
     RDKit          3D

  0  0  0  0  0  0  0  0  0  0999 V3000
M  V30 BEGIN CTAB
M  V30 COUNTS 58 61 0 0 0
M  V30 BEGIN ATOM
M  V30 1 C 1.523066 -2.149147 5.500410 0
M  V30 2 C 2.612142 -2.803003 4.716202 0
M  V30 3 C 2.119572 -3.383975 3.406525 0
M  V30 4 C 1.535259 -2.334585 2.539899 0
M  V30 5 O 1.567870 -1.196969 3.060546 0
M  V30 6 N 0.989233 -2.521355 1.269157 0
M  V30 7 C 0.417137 -1.575191 0.388455 0
M  V30 8 C 0.280022 -0.225346 0.604893 0
M  V30 9 C -0.285555 0.699487 -0.273857 0
M  V30 10 C -0.328529 2.100514 0.106276 0
M  V30 11 N 0.899569 2.513884 0.514089 0
M  V30 12 N 1.112829 3.774646 0.917232 0
M  V30 13 C 2.406723 4.254539 1.359088 0
M  V30 14 C 0.106460 4.688733 0.933419 0
M  V30 15 O 0.254915 5.879741 1.300970 0
M  V30 16 C -1.153297 4.311840 0.529250 0
M  V30 17 C -2.274374 5.119582 0.499034 0
M  V30 18 C -3.503537 4.625063 0.079798 0
M  V30 19 C -3.664613 3.298577 -0.327853 0
M  V30 20 C -2.553962 2.482338 -0.302761 0
M  V30 21 C -1.358662 3.013985 0.117972 0
M  V30 22 C -0.737995 0.168520 -1.463442 0
M  V30 23 C -0.619856 -1.180232 -1.719674 0
M  V30 24 C -0.054535 -2.036415 -0.814299 0
M  V30 25 N -0.018435 -3.415075 -1.247122 0
M  V30 26 C -0.658261 -4.576214 -0.651823 0
M  V30 27 C -1.621250 -5.241204 -1.590157 0
M  V30 28 C -1.532699 -4.804362 -3.006674 0
M  V30 29 C -0.257384 -4.221916 -3.457022 0
M  V30 30 C 0.728923 -3.820311 -2.422849 0
M  V30 31 H 0.545487 -2.581535 5.160688 0
M  V30 32 H 1.470919 -1.046811 5.392582 0
M  V30 33 H 1.599968 -2.328706 6.604408 0
M  V30 34 H 2.965576 -3.668087 5.313793 0
M  V30 35 H 3.488611 -2.179198 4.533849 0
M  V30 36 H 1.412492 -4.222183 3.582660 0
M  V30 37 H 2.989149 -3.789311 2.849795 0
M  V30 38 H 1.049629 -3.527252 1.000745 0
M  V30 39 H 0.636569 0.183423 1.537249 0
M  V30 40 H 3.010744 3.385362 1.669128 0
M  V30 41 H 2.293747 4.892451 2.278373 0
M  V30 42 H 2.969306 4.767345 0.556060 0
M  V30 43 H -2.140957 6.150440 0.817919 0
M  V30 44 H -4.339746 5.329946 0.085691 0
M  V30 45 H -4.637626 2.989337 -0.636262 0
M  V30 46 H -2.701674 1.477571 -0.604134 0
M  V30 47 H -1.174784 0.821989 -2.204754 0
M  V30 48 H -1.000319 -1.513550 -2.673603 0
M  V30 49 H -1.125560 -4.236142 0.293718 0
M  V30 50 H 0.159296 -5.270242 -0.366939 0
M  V30 51 H -2.643394 -5.075654 -1.183090 0
M  V30 52 H -1.449611 -6.336799 -1.529381 0
M  V30 53 H -1.790205 -5.662330 -3.683074 0
M  V30 54 H -2.349831 -4.075305 -3.194084 0
M  V30 55 H -0.438407 -3.327835 -4.124430 0
M  V30 56 H 0.290582 -4.926034 -4.154932 0
M  V30 57 H 1.367686 -4.723422 -2.188688 0
M  V30 58 H 1.356184 -2.991466 -2.811704 0
M  V30 END ATOM
M  V30 BEGIN BOND
M  V30 1 1 1 2
M  V30 2 1 2 3
M  V30 3 1 3 4
M  V30 4 2 4 5
M  V30 5 1 4 6
M  V30 6 1 6 7
M  V30 7 2 7 8
M  V30 8 1 8 9
M  V30 9 1 9 10
M  V30 10 2 10 11
M  V30 11 1 11 12
M  V30 12 1 12 13
M  V30 13 1 12 14
M  V30 14 2 14 15
M  V30 15 1 14 16
M  V30 16 2 16 17
M  V30 17 1 17 18
M  V30 18 2 18 19
M  V30 19 1 19 20
M  V30 20 2 20 21
M  V30 21 2 9 22
M  V30 22 1 22 23
M  V30 23 2 23 24
M  V30 24 1 24 25
M  V30 25 1 25 26
M  V30 26 1 26 27
M  V30 27 1 27 28
M  V30 28 1 28 29
M  V30 29 1 29 30
M  V30 30 1 24 7
M  V30 31 1 30 25
M  V30 32 1 21 10
M  V30 33 1 21 16
M  V30 34 1 1 31
M  V30 35 1 1 32
M  V30 36 1 1 33
M  V30 37 1 2 34
M  V30 38 1 2 35
M  V30 39 1 3 36
M  V30 40 1 3 37
M  V30 41 1 6 38
M  V30 42 1 8 39
M  V30 43 1 13 40
M  V30 44 1 13 41
M  V30 45 1 13 42
M  V30 46 1 17 43
M  V30 47 1 18 44
M  V30 48 1 19 45
M  V30 49 1 20 46
M  V30 50 1 22 47
M  V30 51 1 23 48
M  V30 52 1 26 49
M  V30 53 1 26 50
M  V30 54 1 27 51
M  V30 55 1 27 52
M  V30 56 1 28 53
M  V30 57 1 28 54
M  V30 58 1 29 55
M  V30 59 1 29 56
M  V30 60 1 30 57
M  V30 61 1 30 58
M  V30 END BOND
M  V30 END CTAB
M  END
>  <Dataset>  (952) 
ChEMBL_Kinases

>  <Ligand_Instance>  (952) 
nan

>  <PDB_ID>  (952) 
nan

>  <Standardized_SMILES>  (952) 
CCCC(=O)Nc1cc(-c2nn(C)c(=O)c3ccccc23)ccc1N1CCCCC1

>  <Name>  (952) 
nan

>  <Pocket>  (952) 
nan

>  <ATP_Site>  (952) 
nan

>  <Peripheral>  (952) 
nan

>  <Num_H_Atoms_ProtBoundConf>  (952) 
nan

>  <Num_Resolved_Atoms>  (952) 
nan

>  <Num_Not_Resolved_Atoms>  (952) 
nan

$$$$
CHEMBL1512988
     RDKit          3D

  0  0  0  0  0  0  0  0  0  0999 V3000
M  V30 BEGIN CTAB
M  V30 COUNTS 37 39 0 0 0
M  V30 BEGIN ATOM
M  V30 1 C -0.261487 -3.669774 1.707829 0
M  V30 2 O 1.087066 -3.864434 1.535567 0
M  V30 3 C 1.830150 -2.717699 1.376918 0
M  V30 4 C 1.777115 -1.766786 2.542739 0
M  V30 5 N 2.580346 -0.594320 2.222791 0
M  V30 6 C 3.894225 -0.389257 2.455082 0
M  V30 7 O 4.363062 -1.399565 3.004055 0
M  V30 8 C 4.434411 0.808855 2.070239 0
M  V30 9 N 3.703351 1.769041 1.477475 0
M  V30 10 C 2.392235 1.572590 1.242270 0
M  V30 11 C 1.628871 2.550731 0.640084 0
M  V30 12 N 0.325039 2.325300 0.424679 0
M  V30 13 C -0.269372 1.161210 0.781195 0
M  V30 14 N -1.600079 0.670060 0.693039 0
M  V30 15 C -2.127058 0.163551 -0.533198 0
M  V30 16 C -1.339491 0.271053 -1.672155 0
M  V30 17 C -1.841950 -0.212710 -2.884394 0
M  V30 18 C -3.110600 -0.790443 -2.939307 0
M  V30 19 C -3.880357 -0.886222 -1.780713 0
M  V30 20 C -3.381039 -0.405312 -0.573252 0
M  V30 21 N 0.510525 0.242800 1.361627 0
M  V30 22 C 1.821307 0.374374 1.619532 0
M  V30 23 H -0.477370 -3.057994 2.619520 0
M  V30 24 H -0.759806 -4.658348 1.763624 0
M  V30 25 H -0.706521 -3.152704 0.807750 0
M  V30 26 H 2.897183 -3.069378 1.252421 0
M  V30 27 H 1.584158 -2.167169 0.468112 0
M  V30 28 H 2.278491 -2.260611 3.407227 0
M  V30 29 H 0.770732 -1.491626 2.869520 0
M  V30 30 H 5.505696 0.853659 2.312965 0
M  V30 31 H 2.022427 3.504074 0.325820 0
M  V30 32 H -2.203644 0.672682 1.538169 0
M  V30 33 H -0.366186 0.723132 -1.581336 0
M  V30 34 H -1.183422 -0.106630 -3.761688 0
M  V30 35 H -3.466751 -1.147269 -3.871014 0
M  V30 36 H -4.876204 -1.341385 -1.826524 0
M  V30 37 H -3.957407 -0.469898 0.346304 0
M  V30 END ATOM
M  V30 BEGIN BOND
M  V30 1 1 1 2
M  V30 2 1 2 3
M  V30 3 1 3 4
M  V30 4 1 4 5
M  V30 5 1 5 6
M  V30 6 2 6 7
M  V30 7 1 6 8
M  V30 8 2 8 9
M  V30 9 1 9 10
M  V30 10 2 10 11
M  V30 11 1 11 12
M  V30 12 2 12 13
M  V30 13 1 13 14
M  V30 14 1 14 15
M  V30 15 2 15 16
M  V30 16 1 16 17
M  V30 17 2 17 18
M  V30 18 1 18 19
M  V30 19 2 19 20
M  V30 20 1 13 21
M  V30 21 2 21 22
M  V30 22 1 22 5
M  V30 23 1 22 10
M  V30 24 1 20 15
M  V30 25 1 1 23
M  V30 26 1 1 24
M  V30 27 1 1 25
M  V30 28 1 3 26
M  V30 29 1 3 27
M  V30 30 1 4 28
M  V30 31 1 4 29
M  V30 32 1 8 30
M  V30 33 1 11 31
M  V30 34 1 14 32
M  V30 35 1 16 33
M  V30 36 1 17 34
M  V30 37 1 18 35
M  V30 38 1 19 36
M  V30 39 1 20 37
M  V30 END BOND
M  V30 END CTAB
M  END
>  <Dataset>  (953) 
ChEMBL_Kinases

>  <Ligand_Instance>  (953) 
nan

>  <PDB_ID>  (953) 
nan

>  <Standardized_SMILES>  (953) 
COCCn1c(=O)cnc2cnc(Nc3ccccc3)nc21

>  <Name>  (953) 
nan

>  <Pocket>  (953) 
nan

>  <ATP_Site>  (953) 
nan

>  <Peripheral>  (953) 
nan

>  <Num_H_Atoms_ProtBoundConf>  (953) 
nan

>  <Num_Resolved_Atoms>  (953) 
nan

>  <Num_Not_Resolved_Atoms>  (953) 
nan

$$$$
CHEMBL1511921
     RDKit          3D

  0  0  0  0  0  0  0  0  0  0999 V3000
M  V30 BEGIN CTAB
M  V30 COUNTS 50 51 0 0 0
M  V30 BEGIN ATOM
M  V30 1 C 6.768219 -2.351992 3.821237 0
M  V30 2 C 6.347662 -1.223029 4.765890 0
M  V30 3 O 5.035502 -0.832077 4.353849 0
M  V30 4 C 4.796945 -0.353843 3.068411 0
M  V30 5 O 5.704939 -0.239872 2.207475 0
M  V30 6 C 3.430984 0.021405 2.738621 0
M  V30 7 C 3.118110 0.494229 1.518556 0
M  V30 8 S 4.378255 0.685717 0.231728 0
M  V30 9 C 3.198957 1.168060 -1.095484 0
M  V30 10 C 2.145831 1.748805 -0.221962 0
M  V30 11 O 1.485710 2.839293 -0.362730 0
M  V30 12 N 1.878150 0.938414 0.912527 0
M  V30 13 C 0.635359 0.496734 1.515480 0
M  V30 14 C 0.125995 -0.816373 1.042822 0
M  V30 15 O -1.078680 -1.188599 1.696987 0
M  V30 16 C -0.134093 -0.961632 -0.415130 0
M  V30 17 N -1.228897 -0.172803 -0.931208 0
M  V30 18 C -1.323857 1.109781 -1.503660 0
M  V30 19 O -0.412445 1.501931 -2.317640 0
M  V30 20 C -2.497414 1.928044 -1.113543 0
M  V30 21 S -3.727720 0.617717 -0.727625 0
M  V30 22 C -2.555321 -0.763597 -0.866910 0
M  V30 23 C -3.043368 -2.004146 -0.888939 0
M  V30 24 C -4.437606 -2.414047 -0.811294 0
M  V30 25 O -4.665677 -3.652659 -0.859722 0
M  V30 26 O -5.392526 -1.418107 -0.691414 0
M  V30 27 C -6.787876 -1.763133 -0.609302 0
M  V30 28 C -7.131390 -2.501629 -1.891226 0
M  V30 29 H 7.378658 -1.944148 2.971210 0
M  V30 30 H 5.867032 -2.822160 3.367192 0
M  V30 31 H 7.389161 -3.102767 4.332162 0
M  V30 32 H 6.295209 -1.642320 5.777711 0
M  V30 33 H 7.063387 -0.400255 4.715374 0
M  V30 34 H 2.594263 -0.043469 3.404885 0
M  V30 35 H 3.718653 1.968133 -1.667061 0
M  V30 36 H 2.878116 0.315163 -1.691243 0
M  V30 37 H -0.182355 1.239846 1.358220 0
M  V30 38 H 0.754138 0.484577 2.639312 0
M  V30 39 H 0.853304 -1.611886 1.407071 0
M  V30 40 H -1.622037 -0.359007 1.765225 0
M  V30 41 H -0.275647 -2.029584 -0.640667 0
M  V30 42 H 0.781377 -0.556635 -0.950191 0
M  V30 43 H -2.851195 2.415052 -2.046577 0
M  V30 44 H -2.332416 2.609692 -0.283330 0
M  V30 45 H -2.219729 -2.726655 -0.978998 0
M  V30 46 H -6.950833 -2.465057 0.224884 0
M  V30 47 H -7.364532 -0.834154 -0.499109 0
M  V30 48 H -6.851887 -3.561334 -1.742507 0
M  V30 49 H -8.205140 -2.361453 -2.177146 0
M  V30 50 H -6.449754 -2.105607 -2.682948 0
M  V30 END ATOM
M  V30 BEGIN BOND
M  V30 1 1 1 2
M  V30 2 1 2 3
M  V30 3 1 3 4
M  V30 4 2 4 5
M  V30 5 1 4 6
M  V30 6 2 6 7
M  V30 7 1 7 8
M  V30 8 1 8 9
M  V30 9 1 9 10
M  V30 10 2 10 11
M  V30 11 1 10 12
M  V30 12 1 12 13
M  V30 13 1 13 14
M  V30 14 1 14 15
M  V30 15 1 14 16
M  V30 16 1 16 17
M  V30 17 1 17 18
M  V30 18 2 18 19
M  V30 19 1 18 20
M  V30 20 1 20 21
M  V30 21 1 21 22
M  V30 22 2 22 23
M  V30 23 1 23 24
M  V30 24 2 24 25
M  V30 25 1 24 26
M  V30 26 1 26 27
M  V30 27 1 27 28
M  V30 28 1 12 7
M  V30 29 1 22 17
M  V30 30 1 1 29
M  V30 31 1 1 30
M  V30 32 1 1 31
M  V30 33 1 2 32
M  V30 34 1 2 33
M  V30 35 1 6 34
M  V30 36 1 9 35
M  V30 37 1 9 36
M  V30 38 1 13 37
M  V30 39 1 13 38
M  V30 40 1 14 39
M  V30 41 1 15 40
M  V30 42 1 16 41
M  V30 43 1 16 42
M  V30 44 1 20 43
M  V30 45 1 20 44
M  V30 46 1 23 45
M  V30 47 1 27 46
M  V30 48 1 27 47
M  V30 49 1 28 48
M  V30 50 1 28 49
M  V30 51 1 28 50
M  V30 END BOND
M  V30 END CTAB
M  END
>  <Dataset>  (954) 
ChEMBL_Kinases

>  <Ligand_Instance>  (954) 
nan

>  <PDB_ID>  (954) 
nan

>  <Standardized_SMILES>  (954) 
CCOC(=O)/C=C1\SCC(=O)N1CC(O)CN1C(=O)CS/C1=C\C(=O)OCC

>  <Name>  (954) 
nan

>  <Pocket>  (954) 
nan

>  <ATP_Site>  (954) 
nan

>  <Peripheral>  (954) 
nan

>  <Num_H_Atoms_ProtBoundConf>  (954) 
nan

>  <Num_Resolved_Atoms>  (954) 
nan

>  <Num_Not_Resolved_Atoms>  (954) 
nan

$$$$
CHEMBL1512208
     RDKit          3D

  0  0  0  0  0  0  0  0  0  0999 V3000
M  V30 BEGIN CTAB
M  V30 COUNTS 65 69 0 0 0
M  V30 BEGIN ATOM
M  V30 1 C 0.056877 -1.120048 4.384178 0
M  V30 2 C -0.053894 -0.623646 2.975579 0
M  V30 3 N 0.976959 0.134641 2.499193 0
M  V30 4 C 0.971166 0.626341 1.248694 0
M  V30 5 N 2.036795 1.417194 0.740108 0
M  V30 6 C 3.204957 1.732444 1.577222 0
M  V30 7 C 2.755525 2.479131 2.778972 0
M  V30 8 C 3.712530 3.456860 3.360093 0
M  V30 9 C 5.130037 3.006005 2.986009 0
M  V30 10 C 5.218825 3.262942 1.493029 0
M  V30 11 C 4.309796 2.327542 0.783808 0
M  V30 12 C -0.095802 0.365556 0.417743 0
M  V30 13 N -0.456163 0.665273 -0.828957 0
M  V30 14 C -1.658557 0.104493 -1.082088 0
M  V30 15 C -2.169419 0.365535 -2.438936 0
M  V30 16 C -3.277796 1.180343 -2.536674 0
M  V30 17 C -3.752461 1.419552 -3.830312 0
M  V30 18 C -3.087584 0.832246 -4.897871 0
M  V30 19 C -1.984331 0.024751 -4.760480 0
M  V30 20 C -1.489676 -0.230496 -3.478867 0
M  V30 21 N -2.108177 -0.581089 0.013540 0
M  V30 22 C -3.370398 -1.209563 -0.036326 0
M  V30 23 C -3.494914 -2.591146 -0.578979 0
M  V30 24 N -2.733074 -3.587341 0.093627 0
M  V30 25 C -3.189816 -4.942632 -0.321767 0
M  V30 26 C -2.235071 -5.924364 0.305540 0
M  V30 27 C -1.450747 -5.286844 1.431750 0
M  V30 28 C -0.556664 -4.227954 0.783695 0
M  V30 29 C -1.329403 -3.602984 -0.343909 0
M  V30 30 C -1.113411 -0.403868 0.940860 0
M  V30 31 N -1.131289 -0.907238 2.187798 0
M  V30 32 H 0.817579 -1.907238 4.473434 0
M  V30 33 H -0.971667 -1.442424 4.685695 0
M  V30 34 H 0.344509 -0.276019 5.070520 0
M  V30 35 H 2.029446 1.794155 -0.222600 0
M  V30 36 H 3.596540 0.737625 1.944651 0
M  V30 37 H 2.389284 1.793725 3.578090 0
M  V30 38 H 1.835372 3.060692 2.477777 0
M  V30 39 H 3.642592 3.455542 4.447421 0
M  V30 40 H 3.579904 4.463138 2.909933 0
M  V30 41 H 5.820442 3.731127 3.487358 0
M  V30 42 H 5.336495 1.976822 3.280948 0
M  V30 43 H 6.255697 3.098209 1.171271 0
M  V30 44 H 4.901399 4.323948 1.361036 0
M  V30 45 H 4.916524 1.522624 0.284635 0
M  V30 46 H 3.841922 2.917586 -0.059193 0
M  V30 47 H -3.744720 1.604180 -1.660376 0
M  V30 48 H -4.620380 2.053521 -3.944889 0
M  V30 49 H -3.478311 1.034606 -5.898712 0
M  V30 50 H -1.471990 -0.430295 -5.606813 0
M  V30 51 H -0.628001 -0.852735 -3.273724 0
M  V30 52 H -4.137356 -0.527537 -0.534215 0
M  V30 53 H -3.766833 -1.217679 1.038974 0
M  V30 54 H -4.581517 -2.902335 -0.453438 0
M  V30 55 H -3.366583 -2.624522 -1.692599 0
M  V30 56 H -4.238280 -5.106550 -0.032961 0
M  V30 57 H -3.134599 -4.980332 -1.434111 0
M  V30 58 H -2.795026 -6.829621 0.684101 0
M  V30 59 H -1.542973 -6.351719 -0.464993 0
M  V30 60 H -2.177690 -4.706781 2.045101 0
M  V30 61 H -0.894829 -6.028022 2.006636 0
M  V30 62 H 0.388145 -4.723832 0.434368 0
M  V30 63 H -0.296350 -3.476804 1.552079 0
M  V30 64 H -1.201864 -4.300781 -1.234793 0
M  V30 65 H -0.962763 -2.651717 -0.682091 0
M  V30 END ATOM
M  V30 BEGIN BOND
M  V30 1 1 1 2
M  V30 2 2 2 3
M  V30 3 1 3 4
M  V30 4 1 4 5
M  V30 5 1 5 6
M  V30 6 1 6 7
M  V30 7 1 7 8
M  V30 8 1 8 9
M  V30 9 1 9 10
M  V30 10 1 10 11
M  V30 11 2 4 12
M  V30 12 1 12 13
M  V30 13 2 13 14
M  V30 14 1 14 15
M  V30 15 2 15 16
M  V30 16 1 16 17
M  V30 17 2 17 18
M  V30 18 1 18 19
M  V30 19 2 19 20
M  V30 20 1 14 21
M  V30 21 1 21 22
M  V30 22 1 22 23
M  V30 23 1 23 24
M  V30 24 1 24 25
M  V30 25 1 25 26
M  V30 26 1 26 27
M  V30 27 1 27 28
M  V30 28 1 28 29
M  V30 29 1 21 30
M  V30 30 2 30 31
M  V30 31 1 31 2
M  V30 32 1 11 6
M  V30 33 1 30 12
M  V30 34 1 20 15
M  V30 35 1 29 24
M  V30 36 1 1 32
M  V30 37 1 1 33
M  V30 38 1 1 34
M  V30 39 1 5 35
M  V30 40 1 6 36
M  V30 41 1 7 37
M  V30 42 1 7 38
M  V30 43 1 8 39
M  V30 44 1 8 40
M  V30 45 1 9 41
M  V30 46 1 9 42
M  V30 47 1 10 43
M  V30 48 1 10 44
M  V30 49 1 11 45
M  V30 50 1 11 46
M  V30 51 1 16 47
M  V30 52 1 17 48
M  V30 53 1 18 49
M  V30 54 1 19 50
M  V30 55 1 20 51
M  V30 56 1 22 52
M  V30 57 1 22 53
M  V30 58 1 23 54
M  V30 59 1 23 55
M  V30 60 1 25 56
M  V30 61 1 25 57
M  V30 62 1 26 58
M  V30 63 1 26 59
M  V30 64 1 27 60
M  V30 65 1 27 61
M  V30 66 1 28 62
M  V30 67 1 28 63
M  V30 68 1 29 64
M  V30 69 1 29 65
M  V30 END BOND
M  V30 END CTAB
M  END
>  <Dataset>  (955) 
ChEMBL_Kinases

>  <Ligand_Instance>  (955) 
nan

>  <PDB_ID>  (955) 
nan

>  <Standardized_SMILES>  (955) 
Cc1nc(NC2CCCCC2)c2nc(-c3ccccc3)n(CCN3CCCCC3)c2n1

>  <Name>  (955) 
nan

>  <Pocket>  (955) 
nan

>  <ATP_Site>  (955) 
nan

>  <Peripheral>  (955) 
nan

>  <Num_H_Atoms_ProtBoundConf>  (955) 
nan

>  <Num_Resolved_Atoms>  (955) 
nan

>  <Num_Not_Resolved_Atoms>  (955) 
nan

$$$$
CHEMBL1512579
     RDKit          3D

  0  0  0  0  0  0  0  0  0  0999 V3000
M  V30 BEGIN CTAB
M  V30 COUNTS 50 53 0 0 0
M  V30 BEGIN ATOM
M  V30 1 C 2.186752 -7.161647 4.100227 0
M  V30 2 O 1.944795 -6.664453 2.801011 0
M  V30 3 C 2.050956 -5.331054 2.434161 0
M  V30 4 C 2.416520 -4.377307 3.362139 0
M  V30 5 C 2.527022 -3.048137 3.016686 0
M  V30 6 C 2.260441 -2.693940 1.709217 0
M  V30 7 N 2.297859 -1.380405 1.093914 0
M  V30 8 C 0.955619 -0.880700 1.294160 0
M  V30 9 O 0.379458 -1.804144 1.907801 0
M  V30 10 C 0.594871 0.453344 0.792848 0
M  V30 11 C 1.300787 1.616242 0.957052 0
M  V30 12 N 0.553216 2.550185 0.299988 0
M  V30 13 C 0.792602 3.948768 0.129141 0
M  V30 14 C -0.132098 4.810707 0.713996 0
M  V30 15 C -0.045393 6.183608 0.636635 0
M  V30 16 C 0.978630 6.774225 -0.037278 0
M  V30 17 C 1.903522 5.932678 -0.622562 0
M  V30 18 C 1.829126 4.560408 -0.552501 0
M  V30 19 N -0.508753 1.966267 -0.207343 0
M  V30 20 C -0.553617 0.649289 0.059931 0
M  V30 21 C -1.661679 -0.143645 -0.437090 0
M  V30 22 C -2.427599 -1.059661 0.242494 0
M  V30 23 C -3.463889 -1.786147 -0.303249 0
M  V30 24 C -3.750174 -1.571944 -1.636153 0
M  V30 25 C -4.860969 -2.323032 -2.309115 0
M  V30 26 C -3.048895 -0.677224 -2.417116 0
M  V30 27 C -2.028202 0.004648 -1.784028 0
M  V30 28 C 1.893413 -3.651028 0.776480 0
M  V30 29 C 1.781374 -4.998160 1.126940 0
M  V30 30 H 3.282094 -7.232519 4.227063 0
M  V30 31 H 1.827644 -6.433962 4.878077 0
M  V30 32 H 1.653589 -8.115211 4.287195 0
M  V30 33 H 2.632895 -4.597593 4.387426 0
M  V30 34 H 2.796403 -2.203806 3.627553 0
M  V30 35 H 3.051059 -0.809573 0.591803 0
M  V30 36 H 2.214808 1.793672 1.463165 0
M  V30 37 H -0.981719 4.393997 1.274277 0
M  V30 38 H -0.781852 6.831818 1.105074 0
M  V30 39 H 1.070787 7.847751 -0.112300 0
M  V30 40 H 2.724550 6.383233 -1.159894 0
M  V30 41 H 2.531941 3.869423 -1.001169 0
M  V30 42 H -2.188455 -1.201773 1.282544 0
M  V30 43 H -4.014370 -2.486765 0.295130 0
M  V30 44 H -5.631901 -2.646001 -1.571125 0
M  V30 45 H -5.397292 -1.690467 -3.039061 0
M  V30 46 H -4.499175 -3.233150 -2.818192 0
M  V30 47 H -3.251220 -0.490015 -3.458957 0
M  V30 48 H -1.465011 0.713192 -2.387370 0
M  V30 49 H 1.663244 -3.471388 -0.275991 0
M  V30 50 H 1.497807 -5.760045 0.425630 0
M  V30 END ATOM
M  V30 BEGIN BOND
M  V30 1 1 1 2
M  V30 2 1 2 3
M  V30 3 2 3 4
M  V30 4 1 4 5
M  V30 5 2 5 6
M  V30 6 1 6 7
M  V30 7 1 7 8
M  V30 8 2 8 9
M  V30 9 1 8 10
M  V30 10 2 10 11
M  V30 11 1 11 12
M  V30 12 1 12 13
M  V30 13 2 13 14
M  V30 14 1 14 15
M  V30 15 2 15 16
M  V30 16 1 16 17
M  V30 17 2 17 18
M  V30 18 1 12 19
M  V30 19 2 19 20
M  V30 20 1 20 21
M  V30 21 2 21 22
M  V30 22 1 22 23
M  V30 23 2 23 24
M  V30 24 1 24 25
M  V30 25 1 24 26
M  V30 26 2 26 27
M  V30 27 1 6 28
M  V30 28 2 28 29
M  V30 29 1 29 3
M  V30 30 1 20 10
M  V30 31 1 27 21
M  V30 32 1 18 13
M  V30 33 1 1 30
M  V30 34 1 1 31
M  V30 35 1 1 32
M  V30 36 1 4 33
M  V30 37 1 5 34
M  V30 38 1 7 35
M  V30 39 1 11 36
M  V30 40 1 14 37
M  V30 41 1 15 38
M  V30 42 1 16 39
M  V30 43 1 17 40
M  V30 44 1 18 41
M  V30 45 1 22 42
M  V30 46 1 23 43
M  V30 47 1 25 44
M  V30 48 1 25 45
M  V30 49 1 25 46
M  V30 50 1 26 47
M  V30 51 1 27 48
M  V30 52 1 28 49
M  V30 53 1 29 50
M  V30 END BOND
M  V30 END CTAB
M  END
>  <Dataset>  (956) 
ChEMBL_Kinases

>  <Ligand_Instance>  (956) 
nan

>  <PDB_ID>  (956) 
nan

>  <Standardized_SMILES>  (956) 
COc1ccc(NC(=O)c2cn(-c3ccccc3)nc2-c2ccc(C)cc2)cc1

>  <Name>  (956) 
nan

>  <Pocket>  (956) 
nan

>  <ATP_Site>  (956) 
nan

>  <Peripheral>  (956) 
nan

>  <Num_H_Atoms_ProtBoundConf>  (956) 
nan

>  <Num_Resolved_Atoms>  (956) 
nan

>  <Num_Not_Resolved_Atoms>  (956) 
nan

$$$$
CHEMBL1512614
     RDKit          3D

  0  0  0  0  0  0  0  0  0  0999 V3000
M  V30 BEGIN CTAB
M  V30 COUNTS 28 30 0 0 0
M  V30 BEGIN ATOM
M  V30 1 O 0.095490 -4.107709 2.256960 0
M  V30 2 C 0.524971 -2.903708 2.385642 0
M  V30 3 C 0.232718 -2.009986 1.297912 0
M  V30 4 C 0.470289 -0.743639 1.018544 0
M  V30 5 C 0.097180 0.032151 -0.156881 0
M  V30 6 C 0.470424 1.357411 -0.207988 0
M  V30 7 C 0.133035 2.118687 -1.305742 0
M  V30 8 C -0.571779 1.600404 -2.367805 0
M  V30 9 C -0.954622 0.275302 -2.335377 0
M  V30 10 C -0.603866 -0.463818 -1.224678 0
M  V30 11 O -1.642617 0.017357 -3.516883 0
M  V30 12 C -2.049233 1.264982 -4.098904 0
M  V30 13 O -1.043250 2.125814 -3.587446 0
M  V30 14 C 1.243547 -2.697281 3.656577 0
M  V30 15 C 1.917232 -1.661493 4.356365 0
M  V30 16 C 2.432880 -2.020198 5.564337 0
M  V30 17 C 2.308775 -3.275190 6.056776 0
M  V30 18 S 1.407866 -4.124136 4.807881 0
M  V30 19 H -0.332476 -2.431010 0.449310 0
M  V30 20 H 1.020132 -0.280711 1.812932 0
M  V30 21 H 1.027700 1.792651 0.616901 0
M  V30 22 H 0.438897 3.171630 -1.328307 0
M  V30 23 H -0.917628 -1.485682 -1.235558 0
M  V30 24 H -2.996126 1.612507 -3.647482 0
M  V30 25 H -2.098184 1.229057 -5.188083 0
M  V30 26 H 1.956044 -0.705739 3.873477 0
M  V30 27 H 2.958043 -1.270769 6.143728 0
M  V30 28 H 2.680164 -3.669869 7.006400 0
M  V30 END ATOM
M  V30 BEGIN BOND
M  V30 1 2 1 2
M  V30 2 1 2 3
M  V30 3 2 3 4
M  V30 4 1 4 5
M  V30 5 2 5 6
M  V30 6 1 6 7
M  V30 7 2 7 8
M  V30 8 1 8 9
M  V30 9 2 9 10
M  V30 10 1 9 11
M  V30 11 1 11 12
M  V30 12 1 12 13
M  V30 13 1 2 14
M  V30 14 2 14 15
M  V30 15 1 15 16
M  V30 16 2 16 17
M  V30 17 1 17 18
M  V30 18 1 10 5
M  V30 19 1 18 14
M  V30 20 1 13 8
M  V30 21 1 3 19
M  V30 22 1 4 20
M  V30 23 1 6 21
M  V30 24 1 7 22
M  V30 25 1 10 23
M  V30 26 1 12 24
M  V30 27 1 12 25
M  V30 28 1 15 26
M  V30 29 1 16 27
M  V30 30 1 17 28
M  V30 END BOND
M  V30 END CTAB
M  END
>  <Dataset>  (957) 
ChEMBL_Kinases

>  <Ligand_Instance>  (957) 
nan

>  <PDB_ID>  (957) 
nan

>  <Standardized_SMILES>  (957) 
O=C(/C=C/c1ccc2c(c1)OCO2)c1cccs1

>  <Name>  (957) 
nan

>  <Pocket>  (957) 
nan

>  <ATP_Site>  (957) 
nan

>  <Peripheral>  (957) 
nan

>  <Num_H_Atoms_ProtBoundConf>  (957) 
nan

>  <Num_Resolved_Atoms>  (957) 
nan

>  <Num_Not_Resolved_Atoms>  (957) 
nan

$$$$
CHEMBL1512693
     RDKit          3D

  0  0  0  0  0  0  0  0  0  0999 V3000
M  V30 BEGIN CTAB
M  V30 COUNTS 37 40 0 0 0
M  V30 BEGIN ATOM
M  V30 1 C -1.378090 -5.016846 2.103466 0
M  V30 2 N -0.376368 -4.049141 2.556495 0
M  V30 3 C 0.662731 -4.537602 3.467767 0
M  V30 4 C -0.353403 -2.685922 2.169082 0
M  V30 5 N -1.131235 -1.872653 2.945965 0
M  V30 6 C -1.155952 -0.547068 2.634091 0
M  V30 7 C -0.440682 -0.008507 1.586162 0
M  V30 8 N -0.447410 1.290751 1.254773 0
M  V30 9 C 0.256369 1.790625 0.230055 0
M  V30 10 C 0.053094 3.239274 0.108274 0
M  V30 11 C 0.650066 3.969003 -0.834700 0
M  V30 12 C 0.534490 5.294196 -1.034254 0
M  V30 13 C -0.387432 5.856971 -0.018774 0
M  V30 14 S -0.909623 4.359978 1.030051 0
M  V30 15 C 1.029598 0.928860 -0.526891 0
M  V30 16 O 1.638606 1.497792 -1.448281 0
M  V30 17 N 1.032887 -0.370983 -0.191893 0
M  V30 18 C 1.858457 -1.196982 -1.026785 0
M  V30 19 C 1.526191 -2.571080 -1.384197 0
M  V30 20 C 1.199830 -1.483593 -2.390106 0
M  V30 21 C 0.327621 -0.867511 0.834001 0
M  V30 22 N 0.364779 -2.190235 1.130118 0
M  V30 23 H -1.947798 -5.321215 3.028183 0
M  V30 24 H -0.900060 -5.914540 1.662597 0
M  V30 25 H -2.044520 -4.559665 1.349335 0
M  V30 26 H 1.340307 -5.245315 2.930841 0
M  V30 27 H 1.265282 -3.699357 3.837169 0
M  V30 28 H 0.144024 -5.078860 4.271764 0
M  V30 29 H -1.766556 0.102329 3.237533 0
M  V30 30 H 1.349551 3.770681 -1.665088 0
M  V30 31 H 0.604722 6.298392 -1.381703 0
M  V30 32 H -1.003967 6.701972 0.540486 0
M  V30 33 H 2.942476 -0.905049 -1.060599 0
M  V30 34 H 0.650511 -3.115074 -1.037299 0
M  V30 35 H 2.379418 -3.253497 -1.649020 0
M  V30 36 H 1.877346 -1.360618 -3.265325 0
M  V30 37 H 0.152388 -1.205935 -2.550322 0
M  V30 END ATOM
M  V30 BEGIN BOND
M  V30 1 1 1 2
M  V30 2 1 2 3
M  V30 3 1 2 4
M  V30 4 2 4 5
M  V30 5 1 5 6
M  V30 6 2 6 7
M  V30 7 1 7 8
M  V30 8 2 8 9
M  V30 9 1 9 10
M  V30 10 2 10 11
M  V30 11 1 11 12
M  V30 12 2 12 13
M  V30 13 1 13 14
M  V30 14 1 9 15
M  V30 15 2 15 16
M  V30 16 1 15 17
M  V30 17 1 17 18
M  V30 18 1 18 19
M  V30 19 1 19 20
M  V30 20 1 17 21
M  V30 21 2 21 22
M  V30 22 1 22 4
M  V30 23 1 21 7
M  V30 24 1 14 10
M  V30 25 1 20 18
M  V30 26 1 1 23
M  V30 27 1 1 24
M  V30 28 1 1 25
M  V30 29 1 3 26
M  V30 30 1 3 27
M  V30 31 1 3 28
M  V30 32 1 6 29
M  V30 33 1 11 30
M  V30 34 1 12 31
M  V30 35 1 13 32
M  V30 36 1 18 33
M  V30 37 1 19 34
M  V30 38 1 19 35
M  V30 39 1 20 36
M  V30 40 1 20 37
M  V30 END BOND
M  V30 END CTAB
M  END
>  <Dataset>  (958) 
ChEMBL_Kinases

>  <Ligand_Instance>  (958) 
nan

>  <PDB_ID>  (958) 
nan

>  <Standardized_SMILES>  (958) 
CN(C)c1ncc2nc(-c3cccs3)c(=O)n(C3CC3)c2n1

>  <Name>  (958) 
nan

>  <Pocket>  (958) 
nan

>  <ATP_Site>  (958) 
nan

>  <Peripheral>  (958) 
nan

>  <Num_H_Atoms_ProtBoundConf>  (958) 
nan

>  <Num_Resolved_Atoms>  (958) 
nan

>  <Num_Not_Resolved_Atoms>  (958) 
nan

$$$$
CHEMBL1512708
     RDKit          3D

  0  0  0  0  0  0  0  0  0  0999 V3000
M  V30 BEGIN CTAB
M  V30 COUNTS 43 46 0 0 0
M  V30 BEGIN ATOM
M  V30 1 C -0.493274 -2.685326 3.654543 0
M  V30 2 O 0.558091 -2.014187 4.282809 0
M  V30 3 C 1.520273 -1.367952 3.551643 0
M  V30 4 C 2.501415 -0.754060 4.330500 0
M  V30 5 C 3.548713 -0.059469 3.784232 0
M  V30 6 C 3.673148 0.060170 2.416182 0
M  V30 7 N 4.541326 0.635313 1.567531 0
M  V30 8 C 4.159532 0.418326 0.297474 0
M  V30 9 C 2.979565 -0.336720 0.252756 0
M  V30 10 C 2.280494 -0.719435 -0.976546 0
M  V30 11 C 1.145347 0.203496 -1.340481 0
M  V30 12 N 0.166431 0.304018 -0.372686 0
M  V30 13 C -0.824124 0.405822 0.606870 0
M  V30 14 N -0.845816 0.824727 1.881999 0
M  V30 15 C -1.927764 0.828176 2.664116 0
M  V30 16 N -3.059549 0.380639 2.127402 0
M  V30 17 C -3.173551 -0.061785 0.875221 0
M  V30 18 C -2.042353 -0.060459 0.071607 0
M  V30 19 C -2.356321 -0.572421 -1.280329 0
M  V30 20 C -2.095312 -0.126402 -2.572095 0
M  V30 21 C -2.618498 -1.008968 -3.490515 0
M  V30 22 O -3.178667 -1.959852 -2.789706 0
M  V30 23 C -3.058835 -1.760677 -1.503777 0
M  V30 24 C 2.718120 -0.534070 1.598572 0
M  V30 25 C 1.692269 -1.216869 2.198555 0
M  V30 26 H -0.527403 -3.762694 3.993828 0
M  V30 27 H -0.459080 -2.725282 2.558304 0
M  V30 28 H -1.476891 -2.193457 3.907629 0
M  V30 29 H 2.514415 -0.776743 5.429693 0
M  V30 30 H 4.319329 0.424758 4.391684 0
M  V30 31 H 5.371162 1.161409 1.915257 0
M  V30 32 H 4.733591 0.803215 -0.508956 0
M  V30 33 H 3.050003 -0.750112 -1.806093 0
M  V30 34 H 1.936469 -1.780436 -0.912192 0
M  V30 35 H 1.605559 1.205501 -1.603033 0
M  V30 36 H 0.739998 -0.099996 -2.365831 0
M  V30 37 H 0.920167 0.725101 0.269921 0
M  V30 38 H -1.763834 1.197155 3.655650 0
M  V30 39 H -4.165916 -0.385667 0.601956 0
M  V30 40 H -1.543854 0.804625 -2.703953 0
M  V30 41 H -2.543673 -0.878371 -4.565382 0
M  V30 42 H -3.485361 -2.484091 -0.792054 0
M  V30 43 H 0.939628 -1.686332 1.586486 0
M  V30 END ATOM
M  V30 BEGIN BOND
M  V30 1 1 1 2
M  V30 2 1 2 3
M  V30 3 2 3 4
M  V30 4 1 4 5
M  V30 5 2 5 6
M  V30 6 1 6 7
M  V30 7 1 7 8
M  V30 8 2 8 9
M  V30 9 1 9 10
M  V30 10 1 10 11
M  V30 11 1 11 12
M  V30 12 1 12 13
M  V30 13 2 13 14
M  V30 14 1 14 15
M  V30 15 2 15 16
M  V30 16 1 16 17
M  V30 17 2 17 18
M  V30 18 1 18 19
M  V30 19 1 19 20
M  V30 20 2 20 21
M  V30 21 1 21 22
M  V30 22 1 22 23
M  V30 23 1 9 24
M  V30 24 2 24 25
M  V30 25 1 25 3
M  V30 26 1 24 6
M  V30 27 1 18 13
M  V30 28 2 23 19
M  V30 29 1 1 26
M  V30 30 1 1 27
M  V30 31 1 1 28
M  V30 32 1 4 29
M  V30 33 1 5 30
M  V30 34 1 7 31
M  V30 35 1 8 32
M  V30 36 1 10 33
M  V30 37 1 10 34
M  V30 38 1 11 35
M  V30 39 1 11 36
M  V30 40 1 12 37
M  V30 41 1 15 38
M  V30 42 1 17 39
M  V30 43 1 20 40
M  V30 44 1 21 41
M  V30 45 1 23 42
M  V30 46 1 25 43
M  V30 END BOND
M  V30 END CTAB
M  END
>  <Dataset>  (959) 
ChEMBL_Kinases

>  <Ligand_Instance>  (959) 
nan

>  <PDB_ID>  (959) 
nan

>  <Standardized_SMILES>  (959) 
COc1ccc2[nH]cc(CCNc3ncncc3-c3ccoc3)c2c1

>  <Name>  (959) 
nan

>  <Pocket>  (959) 
nan

>  <ATP_Site>  (959) 
nan

>  <Peripheral>  (959) 
nan

>  <Num_H_Atoms_ProtBoundConf>  (959) 
nan

>  <Num_Resolved_Atoms>  (959) 
nan

>  <Num_Not_Resolved_Atoms>  (959) 
nan

$$$$
CHEMBL1512797
     RDKit          3D

  0  0  0  0  0  0  0  0  0  0999 V3000
M  V30 BEGIN CTAB
M  V30 COUNTS 71 74 0 0 0
M  V30 BEGIN ATOM
M  V30 1 C 0.796478 -0.222849 4.512487 0
M  V30 2 O 2.105053 -0.192399 4.065524 0
M  V30 3 C 2.741733 -1.186714 3.406902 0
M  V30 4 O 1.644836 -1.753607 3.542480 0
M  V30 5 C 3.438082 -2.270480 2.688185 0
M  V30 6 C 2.916109 -2.432324 1.237797 0
M  V30 7 C 3.160407 -1.116158 0.548370 0
M  V30 8 C 4.676354 -0.906453 0.674366 0
M  V30 9 C 2.736911 -1.128891 -0.861074 0
M  V30 10 C 2.991424 0.243229 -1.522789 0
M  V30 11 C 1.723877 1.022448 -1.304410 0
M  V30 12 C 0.796879 0.019142 -0.714743 0
M  V30 13 C -0.655904 0.276109 -0.961883 0
M  V30 14 C -1.022935 1.462047 -0.140083 0
M  V30 15 C -2.445958 1.553101 0.290204 0
M  V30 16 C -2.795749 0.264065 0.993979 0 CFG=1
M  V30 17 C -4.160429 0.395321 1.591660 0
M  V30 18 C -5.258286 0.553278 0.598623 0
M  V30 19 O -5.420450 1.884143 0.215523 0
M  V30 20 C -5.155526 -0.308584 -0.611513 0
M  V30 21 C -3.770553 -0.498370 -1.127907 0
M  V30 22 C -2.748060 -0.817053 -0.044884 0 CFG=2
M  V30 23 C -3.200524 -2.102156 0.595195 0
M  V30 24 C -1.427829 -0.964470 -0.702247 0
M  V30 25 C -0.594414 -2.036983 -0.001443 0
M  V30 26 C 0.548551 -2.472386 -0.932468 0
M  V30 27 O -0.113215 -3.029617 -2.084244 0
M  V30 28 C 1.326269 -1.280328 -1.274448 0 CFG=2
M  V30 29 C 1.338680 -1.209967 -2.811525 0
M  V30 30 H 0.698004 -1.053325 5.273459 0
M  V30 31 H 0.050135 -0.423531 3.727632 0
M  V30 32 H 0.535462 0.735151 5.036664 0
M  V30 33 H 4.520832 -1.964864 2.670881 0
M  V30 34 H 3.458129 -3.246247 3.215243 0
M  V30 35 H 3.472941 -3.280442 0.801045 0
M  V30 36 H 1.837778 -2.667839 1.400059 0
M  V30 37 H 2.728510 -0.318837 1.173457 0
M  V30 38 H 5.176286 -1.889881 0.777592 0
M  V30 39 H 4.912068 -0.322854 1.583728 0
M  V30 40 H 5.126141 -0.366819 -0.147928 0
M  V30 41 H 3.331004 -1.875423 -1.475065 0
M  V30 42 H 3.115321 0.046989 -2.593617 0
M  V30 43 H 3.886553 0.740480 -1.179667 0
M  V30 44 H 1.341954 1.539609 -2.216808 0
M  V30 45 H 1.899494 1.899273 -0.602973 0
M  V30 46 H 0.933987 -0.004655 0.379028 0
M  V30 47 H -0.734128 0.603904 -2.039548 0
M  V30 48 H -0.410568 1.431238 0.808273 0
M  V30 49 H -0.674854 2.383568 -0.664316 0
M  V30 50 H -3.143868 1.862688 -0.487002 0
M  V30 51 H -2.493133 2.347338 1.074493 0
M  V30 52 H -2.062085 0.119796 1.794127 0
M  V30 53 H -4.152548 1.327232 2.211074 0
M  V30 54 H -4.391568 -0.406774 2.348663 0
M  V30 55 H -6.225679 0.272731 1.112059 0
M  V30 56 H -5.697269 1.925937 -0.751932 0
M  V30 57 H -5.728899 0.208758 -1.428359 0
M  V30 58 H -5.693980 -1.282408 -0.492631 0
M  V30 59 H -3.453594 0.325853 -1.793558 0
M  V30 60 H -3.784813 -1.407962 -1.789635 0
M  V30 61 H -3.299642 -2.927728 -0.148120 0
M  V30 62 H -4.262335 -1.915936 0.935971 0
M  V30 63 H -2.643152 -2.373103 1.505868 0
M  V30 64 H -1.625893 -1.427200 -1.718483 0
M  V30 65 H -0.270157 -1.732247 0.981855 0
M  V30 66 H -1.241922 -2.930536 0.089369 0
M  V30 67 H 1.022339 -3.340690 -0.507621 0
M  V30 68 H -0.656513 -3.793387 -1.813737 0
M  V30 69 H 1.267192 -0.206277 -3.210437 0
M  V30 70 H 2.273308 -1.681228 -3.164888 0
M  V30 71 H 0.524624 -1.802876 -3.270250 0
M  V30 END ATOM
M  V30 BEGIN BOND
M  V30 1 1 1 2
M  V30 2 1 2 3
M  V30 3 2 3 4
M  V30 4 1 3 5
M  V30 5 1 5 6
M  V30 6 1 6 7
M  V30 7 1 7 8
M  V30 8 1 7 9
M  V30 9 1 9 10
M  V30 10 1 10 11
M  V30 11 1 11 12
M  V30 12 1 12 13
M  V30 13 1 13 14
M  V30 14 1 14 15
M  V30 15 1 15 16
M  V30 16 1 16 17
M  V30 17 1 17 18
M  V30 18 1 18 19
M  V30 19 1 18 20
M  V30 20 1 20 21
M  V30 21 1 21 22
M  V30 22 1 22 23 CFG=1
M  V30 23 1 22 24
M  V30 24 1 24 25
M  V30 25 1 25 26
M  V30 26 1 26 27
M  V30 27 1 26 28
M  V30 28 1 28 29 CFG=3
M  V30 29 1 28 9
M  V30 30 1 28 12
M  V30 31 1 24 13
M  V30 32 1 22 16
M  V30 33 1 1 30
M  V30 34 1 1 31
M  V30 35 1 1 32
M  V30 36 1 5 33
M  V30 37 1 5 34
M  V30 38 1 6 35
M  V30 39 1 6 36
M  V30 40 1 7 37
M  V30 41 1 8 38
M  V30 42 1 8 39
M  V30 43 1 8 40
M  V30 44 1 9 41
M  V30 45 1 10 42
M  V30 46 1 10 43
M  V30 47 1 11 44
M  V30 48 1 11 45
M  V30 49 1 12 46
M  V30 50 1 13 47
M  V30 51 1 14 48
M  V30 52 1 14 49
M  V30 53 1 15 50
M  V30 54 1 15 51
M  V30 55 1 16 52 CFG=1
M  V30 56 1 17 53
M  V30 57 1 17 54
M  V30 58 1 18 55
M  V30 59 1 19 56
M  V30 60 1 20 57
M  V30 61 1 20 58
M  V30 62 1 21 59
M  V30 63 1 21 60
M  V30 64 1 23 61
M  V30 65 1 23 62
M  V30 66 1 23 63
M  V30 67 1 24 64
M  V30 68 1 25 65
M  V30 69 1 25 66
M  V30 70 1 26 67
M  V30 71 1 27 68
M  V30 72 1 29 69
M  V30 73 1 29 70
M  V30 74 1 29 71
M  V30 END BOND
M  V30 END CTAB
M  END
>  <Dataset>  (960) 
ChEMBL_Kinases

>  <Ligand_Instance>  (960) 
nan

>  <PDB_ID>  (960) 
nan

>  <Standardized_SMILES>  (960) 
COC(=O)CCC(C)C1CCC2C3CC[C@H]4CC(O)CC[C@@]4(C)C3CC(O)[C@]12C

>  <Name>  (960) 
nan

>  <Pocket>  (960) 
nan

>  <ATP_Site>  (960) 
nan

>  <Peripheral>  (960) 
nan

>  <Num_H_Atoms_ProtBoundConf>  (960) 
nan

>  <Num_Resolved_Atoms>  (960) 
nan

>  <Num_Not_Resolved_Atoms>  (960) 
nan

$$$$
CHEMBL1512933
     RDKit          3D

  0  0  0  0  0  0  0  0  0  0999 V3000
M  V30 BEGIN CTAB
M  V30 COUNTS 26 28 0 0 0
M  V30 BEGIN ATOM
M  V30 1 C 0.893436 -1.229636 -1.041356 0
M  V30 2 C 0.524183 -0.481853 0.223823 0 CFG=1
M  V30 3 C 0.694156 0.909462 -0.090350 0
M  V30 4 O 1.468997 1.826719 0.224971 0
M  V30 5 O -0.363732 1.120673 -0.992255 0
M  V30 6 C -1.214741 -0.024656 -0.964554 0
M  V30 7 O -1.914445 -0.506826 -1.904879 0
M  V30 8 C -0.993741 -0.375861 0.387737 0 CFG=2
M  V30 9 C -1.392265 0.849887 1.188349 0
M  V30 10 C -1.241323 -1.495579 1.202175 0 CFG=1
M  V30 11 C -0.699569 -2.845118 1.036951 0
M  V30 12 C 0.792857 -2.655236 1.167914 0
M  V30 13 C 0.858987 -1.139878 1.440639 0 CFG=2
M  V30 14 O -0.322555 -1.097291 2.232573 0
M  V30 15 H 1.998553 -1.432954 -0.937261 0
M  V30 16 H 0.829786 -0.603965 -1.956479 0
M  V30 17 H 0.312796 -2.118107 -1.252357 0
M  V30 18 H -0.753573 1.720651 1.078933 0
M  V30 19 H -1.564791 0.658859 2.256762 0
M  V30 20 H -2.401500 1.141190 0.775907 0
M  V30 21 H -2.218375 -1.493940 1.696879 0
M  V30 22 H -1.034875 -3.464764 0.207461 0
M  V30 23 H -1.009740 -3.424829 1.951076 0
M  V30 24 H 1.233381 -3.209799 2.030143 0
M  V30 25 H 1.366968 -2.933294 0.292184 0
M  V30 26 H 1.739506 -0.853469 2.010558 0
M  V30 END ATOM
M  V30 BEGIN BOND
M  V30 1 1 2 1 CFG=3
M  V30 2 1 2 3
M  V30 3 2 3 4
M  V30 4 1 3 5
M  V30 5 1 5 6
M  V30 6 2 6 7
M  V30 7 1 6 8
M  V30 8 1 8 9 CFG=1
M  V30 9 1 8 10
M  V30 10 1 10 11
M  V30 11 1 11 12
M  V30 12 1 12 13
M  V30 13 1 13 14
M  V30 14 1 8 2
M  V30 15 1 14 10
M  V30 16 1 13 2
M  V30 17 1 1 15
M  V30 18 1 1 16
M  V30 19 1 1 17
M  V30 20 1 9 18
M  V30 21 1 9 19
M  V30 22 1 9 20
M  V30 23 1 10 21 CFG=1
M  V30 24 1 11 22
M  V30 25 1 11 23
M  V30 26 1 12 24
M  V30 27 1 12 25
M  V30 28 1 13 26 CFG=1
M  V30 END BOND
M  V30 END CTAB
M  END
>  <Dataset>  (961) 
ChEMBL_Kinases

>  <Ligand_Instance>  (961) 
nan

>  <PDB_ID>  (961) 
nan

>  <Standardized_SMILES>  (961) 
C[C@@]12C(=O)OC(=O)[C@@]1(C)[C@H]1CC[C@@H]2O1

>  <Name>  (961) 
nan

>  <Pocket>  (961) 
nan

>  <ATP_Site>  (961) 
nan

>  <Peripheral>  (961) 
nan

>  <Num_H_Atoms_ProtBoundConf>  (961) 
nan

>  <Num_Resolved_Atoms>  (961) 
nan

>  <Num_Not_Resolved_Atoms>  (961) 
nan

$$$$
CHEMBL1511704
     RDKit          3D

  0  0  0  0  0  0  0  0  0  0999 V3000
M  V30 BEGIN CTAB
M  V30 COUNTS 50 53 0 0 0
M  V30 BEGIN ATOM
M  V30 1 C 1.120364 -2.877176 5.469409 0
M  V30 2 C 1.041903 -3.037156 3.979170 0
M  V30 3 C -0.422919 -3.065464 3.589061 0
M  V30 4 O 1.624349 -1.994895 3.265881 0
M  V30 5 C 2.654200 -2.413958 2.429569 0
M  V30 6 C 3.161152 -1.169700 1.745451 0
M  V30 7 C 2.046256 -0.545655 0.970830 0
M  V30 8 N 1.583391 -1.471049 -0.038943 0
M  V30 9 C 0.486543 -1.016678 -0.821299 0
M  V30 10 N -0.097083 0.180633 -0.656611 0
M  V30 11 C -1.127680 0.644302 -1.369556 0
M  V30 12 C -1.791625 1.853954 -1.274903 0
M  V30 13 C -1.477190 2.920311 -0.322890 0
M  V30 14 C -0.150428 3.294146 -0.111924 0
M  V30 15 C 0.059056 4.321038 0.814271 0
M  V30 16 C -0.941872 4.963617 1.508091 0
M  V30 17 C -2.234181 4.562890 1.268839 0
M  V30 18 C -2.505352 3.546843 0.358874 0
M  V30 19 N -2.756939 1.797624 -2.241042 0
M  V30 20 N -2.661387 0.622149 -2.863621 0
M  V30 21 N -1.684328 -0.084269 -2.349981 0
M  V30 22 C -1.166616 -1.302184 -2.590823 0
M  V30 23 C -1.715910 -2.080774 -3.594513 0
M  V30 24 C -1.216269 -3.337727 -3.876482 0
M  V30 25 C -0.142763 -3.803246 -3.123230 0
M  V30 26 C 0.365338 -2.993097 -2.140118 0
M  V30 27 C -0.103137 -1.738117 -1.829268 0
M  V30 28 H 2.010338 -3.377351 5.913182 0
M  V30 29 H 1.005625 -1.821624 5.761816 0
M  V30 30 H 0.250425 -3.420263 5.903696 0
M  V30 31 H 1.559475 -3.975545 3.695582 0
M  V30 32 H -0.567174 -3.943203 2.931075 0
M  V30 33 H -1.072494 -3.189909 4.492778 0
M  V30 34 H -0.732280 -2.118736 3.098426 0
M  V30 35 H 2.265873 -3.113940 1.674249 0
M  V30 36 H 3.462953 -2.929458 2.989981 0
M  V30 37 H 4.032383 -1.375361 1.090177 0
M  V30 38 H 3.444752 -0.459871 2.576442 0
M  V30 39 H 1.166630 -0.408852 1.666429 0
M  V30 40 H 2.307463 0.443599 0.542581 0
M  V30 41 H 2.043706 -2.388587 -0.161951 0
M  V30 42 H 0.669858 2.821916 -0.630360 0
M  V30 43 H 1.089399 4.615246 0.981698 0
M  V30 44 H -0.659559 5.745632 2.201031 0
M  V30 45 H -3.008814 5.089885 1.833184 0
M  V30 46 H -3.550954 3.286303 0.224047 0
M  V30 47 H -2.559000 -1.724343 -4.191663 0
M  V30 48 H -1.637362 -3.957105 -4.659605 0
M  V30 49 H 0.242336 -4.786465 -3.349319 0
M  V30 50 H 1.191068 -3.429767 -1.608451 0
M  V30 END ATOM
M  V30 BEGIN BOND
M  V30 1 1 1 2
M  V30 2 1 2 3
M  V30 3 1 2 4
M  V30 4 1 4 5
M  V30 5 1 5 6
M  V30 6 1 6 7
M  V30 7 1 7 8
M  V30 8 1 8 9
M  V30 9 2 9 10
M  V30 10 1 10 11
M  V30 11 2 11 12
M  V30 12 1 12 13
M  V30 13 2 13 14
M  V30 14 1 14 15
M  V30 15 2 15 16
M  V30 16 1 16 17
M  V30 17 2 17 18
M  V30 18 1 12 19
M  V30 19 2 19 20
M  V30 20 1 20 21
M  V30 21 1 21 22
M  V30 22 2 22 23
M  V30 23 1 23 24
M  V30 24 2 24 25
M  V30 25 1 25 26
M  V30 26 2 26 27
M  V30 27 1 27 9
M  V30 28 1 21 11
M  V30 29 1 27 22
M  V30 30 1 18 13
M  V30 31 1 1 28
M  V30 32 1 1 29
M  V30 33 1 1 30
M  V30 34 1 2 31
M  V30 35 1 3 32
M  V30 36 1 3 33
M  V30 37 1 3 34
M  V30 38 1 5 35
M  V30 39 1 5 36
M  V30 40 1 6 37
M  V30 41 1 6 38
M  V30 42 1 7 39
M  V30 43 1 7 40
M  V30 44 1 8 41
M  V30 45 1 14 42
M  V30 46 1 15 43
M  V30 47 1 16 44
M  V30 48 1 17 45
M  V30 49 1 18 46
M  V30 50 1 23 47
M  V30 51 1 24 48
M  V30 52 1 25 49
M  V30 53 1 26 50
M  V30 END BOND
M  V30 END CTAB
M  END
>  <Dataset>  (962) 
ChEMBL_Kinases

>  <Ligand_Instance>  (962) 
nan

>  <PDB_ID>  (962) 
nan

>  <Standardized_SMILES>  (962) 
CC(C)OCCCNc1nc2c(-c3ccccc3)nnn2c2ccccc12

>  <Name>  (962) 
nan

>  <Pocket>  (962) 
nan

>  <ATP_Site>  (962) 
nan

>  <Peripheral>  (962) 
nan

>  <Num_H_Atoms_ProtBoundConf>  (962) 
nan

>  <Num_Resolved_Atoms>  (962) 
nan

>  <Num_Not_Resolved_Atoms>  (962) 
nan

$$$$
CHEMBL1517687
     RDKit          3D

  0  0  0  0  0  0  0  0  0  0999 V3000
M  V30 BEGIN CTAB
M  V30 COUNTS 39 41 0 0 0
M  V30 BEGIN ATOM
M  V30 1 C 1.267809 -5.145774 4.756065 0
M  V30 2 O 0.368896 -4.544148 3.871493 0
M  V30 3 C 0.674237 -3.475606 3.042519 0
M  V30 4 C 1.852342 -2.776679 2.882129 0
M  V30 5 C 1.907421 -1.734459 1.978827 0
M  V30 6 C 0.806531 -1.373263 1.228673 0
M  V30 7 N 0.962131 -0.284697 0.323493 0
M  V30 8 C 1.391744 -0.654460 -0.995229 0
M  V30 9 C 0.647853 -0.182490 -2.184759 0
M  V30 10 S 2.160232 -0.577151 -3.157528 0
M  V30 11 C 2.640163 0.035001 -1.493767 0
M  V30 12 S 0.596348 1.257099 1.011300 0
M  V30 13 O 0.446163 1.223825 2.481352 0
M  V30 14 O 1.802161 2.180060 0.817286 0
M  V30 15 C -0.728295 2.063652 0.228184 0
M  V30 16 C -0.750114 2.971521 -0.810485 0
M  V30 17 C -1.948170 3.479137 -1.264444 0
M  V30 18 C -3.150354 3.101817 -0.703260 0
M  V30 19 C -3.161831 2.196218 0.336348 0
M  V30 20 C -1.949649 1.681779 0.796619 0
M  V30 21 C -0.379788 -2.062707 1.377457 0
M  V30 22 C -0.440931 -3.109457 2.282403 0
M  V30 23 H 2.302405 -4.785877 4.683791 0
M  V30 24 H 0.846270 -4.980343 5.787242 0
M  V30 25 H 1.324726 -6.256229 4.628925 0
M  V30 26 H 2.641957 -3.148380 3.520155 0
M  V30 27 H 2.874224 -1.245084 1.921888 0
M  V30 28 H 1.561393 -1.763141 -1.168921 0
M  V30 29 H -0.156767 -0.880301 -2.507774 0
M  V30 30 H 0.432322 0.858994 -2.354803 0
M  V30 31 H 2.634152 1.129264 -1.506428 0
M  V30 32 H 3.594810 -0.370976 -1.124342 0
M  V30 33 H 0.252549 3.179821 -1.156472 0
M  V30 34 H -1.846030 4.186495 -2.086404 0
M  V30 35 H -4.036072 3.555394 -1.128627 0
M  V30 36 H -4.123938 1.939182 0.733896 0
M  V30 37 H -2.113188 0.978767 1.620193 0
M  V30 38 H -1.197559 -1.737718 0.769918 0
M  V30 39 H -1.419192 -3.569890 2.309199 0
M  V30 END ATOM
M  V30 BEGIN BOND
M  V30 1 1 1 2
M  V30 2 1 2 3
M  V30 3 2 3 4
M  V30 4 1 4 5
M  V30 5 2 5 6
M  V30 6 1 6 7
M  V30 7 1 7 8
M  V30 8 1 8 9
M  V30 9 1 9 10
M  V30 10 1 10 11
M  V30 11 1 7 12
M  V30 12 2 12 13
M  V30 13 2 12 14
M  V30 14 1 12 15
M  V30 15 2 15 16
M  V30 16 1 16 17
M  V30 17 2 17 18
M  V30 18 1 18 19
M  V30 19 2 19 20
M  V30 20 1 6 21
M  V30 21 2 21 22
M  V30 22 1 22 3
M  V30 23 1 11 8
M  V30 24 1 20 15
M  V30 25 1 1 23
M  V30 26 1 1 24
M  V30 27 1 1 25
M  V30 28 1 4 26
M  V30 29 1 5 27
M  V30 30 1 8 28
M  V30 31 1 9 29
M  V30 32 1 9 30
M  V30 33 1 11 31
M  V30 34 1 11 32
M  V30 35 1 16 33
M  V30 36 1 17 34
M  V30 37 1 18 35
M  V30 38 1 19 36
M  V30 39 1 20 37
M  V30 40 1 21 38
M  V30 41 1 22 39
M  V30 END BOND
M  V30 END CTAB
M  END
>  <Dataset>  (963) 
ChEMBL_Kinases

>  <Ligand_Instance>  (963) 
nan

>  <PDB_ID>  (963) 
nan

>  <Standardized_SMILES>  (963) 
COc1ccc(N(C2CSC2)S(=O)(=O)c2ccccc2)cc1

>  <Name>  (963) 
nan

>  <Pocket>  (963) 
nan

>  <ATP_Site>  (963) 
nan

>  <Peripheral>  (963) 
nan

>  <Num_H_Atoms_ProtBoundConf>  (963) 
nan

>  <Num_Resolved_Atoms>  (963) 
nan

>  <Num_Not_Resolved_Atoms>  (963) 
nan

$$$$
CHEMBL1517511
     RDKit          3D

  0  0  0  0  0  0  0  0  0  0999 V3000
M  V30 BEGIN CTAB
M  V30 COUNTS 42 44 0 0 0
M  V30 BEGIN ATOM
M  V30 1 C 0.738973 -6.461880 2.361376 0
M  V30 2 C 1.666417 -5.480182 1.771092 0
M  V30 3 O 2.769869 -6.080430 1.594212 0
M  V30 4 N 1.462615 -4.094402 1.424917 0
M  V30 5 C 2.595079 -3.452973 0.869690 0
M  V30 6 C 2.657355 -2.200112 0.475004 0
M  V30 7 C 1.472542 -1.367459 0.606058 0
M  V30 8 C 1.518416 -0.107081 0.214548 0
M  V30 9 C 0.408776 0.840317 0.287196 0
M  V30 10 C 0.497202 2.066608 -0.107850 0
M  V30 11 S 2.022047 2.737885 -0.797707 0
M  V30 12 C 1.362713 4.381149 -1.077705 0
M  V30 13 C 1.986927 5.486606 -1.608587 0
M  V30 14 C 1.315027 6.680887 -1.750240 0
M  V30 15 C 0.005262 6.657893 -1.323185 0
M  V30 16 C -0.644368 5.571824 -0.789946 0
M  V30 17 C 0.061533 4.369710 -0.656855 0
M  V30 18 C -0.450347 3.141575 -0.125351 0
M  V30 19 O -1.611652 2.915109 0.314927 0
M  V30 20 C 0.115454 -3.840451 1.783495 0
M  V30 21 C -0.191901 -3.386906 3.073787 0
M  V30 22 C -1.480906 -3.131320 3.489508 0
M  V30 23 C -2.446479 -3.356634 2.536514 0
M  V30 24 C -2.252135 -3.799777 1.246264 0
M  V30 25 C -0.943114 -4.038784 0.886373 0
M  V30 26 H 0.637579 -7.316668 1.669853 0
M  V30 27 H 1.172836 -6.816720 3.322707 0
M  V30 28 H -0.231178 -5.946870 2.538074 0
M  V30 29 H 3.518801 -3.987144 0.733025 0
M  V30 30 H 3.548011 -1.766607 0.059623 0
M  V30 31 H 0.484511 -1.564073 0.981405 0
M  V30 32 H 2.466758 0.273173 -0.203270 0
M  V30 33 H -0.538868 0.508907 0.690293 0
M  V30 34 H 3.018382 5.419812 -1.919500 0
M  V30 35 H 1.745502 7.583080 -2.158148 0
M  V30 36 H -0.557883 7.596970 -1.423409 0
M  V30 37 H -1.691091 5.691884 -0.490065 0
M  V30 38 H 0.637652 -3.233813 3.769839 0
M  V30 39 H -1.723147 -2.782818 4.479207 0
M  V30 40 H -3.485967 -3.168996 2.815603 0
M  V30 41 H -3.078282 -3.947907 0.566266 0
M  V30 42 H -0.694031 -4.385927 -0.097327 0
M  V30 END ATOM
M  V30 BEGIN BOND
M  V30 1 1 1 2
M  V30 2 2 2 3
M  V30 3 1 2 4
M  V30 4 1 4 5
M  V30 5 2 5 6
M  V30 6 1 6 7
M  V30 7 2 7 8
M  V30 8 1 8 9
M  V30 9 2 9 10
M  V30 10 1 10 11
M  V30 11 1 11 12
M  V30 12 2 12 13
M  V30 13 1 13 14
M  V30 14 2 14 15
M  V30 15 1 15 16
M  V30 16 2 16 17
M  V30 17 1 17 18
M  V30 18 2 18 19
M  V30 19 1 4 20
M  V30 20 2 20 21
M  V30 21 1 21 22
M  V30 22 2 22 23
M  V30 23 1 23 24
M  V30 24 2 24 25
M  V30 25 1 18 10
M  V30 26 1 25 20
M  V30 27 1 17 12
M  V30 28 1 1 26
M  V30 29 1 1 27
M  V30 30 1 1 28
M  V30 31 1 5 29
M  V30 32 1 6 30
M  V30 33 1 7 31
M  V30 34 1 8 32
M  V30 35 1 9 33
M  V30 36 1 13 34
M  V30 37 1 14 35
M  V30 38 1 15 36
M  V30 39 1 16 37
M  V30 40 1 21 38
M  V30 41 1 22 39
M  V30 42 1 23 40
M  V30 43 1 24 41
M  V30 44 1 25 42
M  V30 END BOND
M  V30 END CTAB
M  END
>  <Dataset>  (964) 
ChEMBL_Kinases

>  <Ligand_Instance>  (964) 
nan

>  <PDB_ID>  (964) 
nan

>  <Standardized_SMILES>  (964) 
CC(=O)N(/C=C\C=C\C=C1/Sc2ccccc2C1=O)c1ccccc1

>  <Name>  (964) 
nan

>  <Pocket>  (964) 
nan

>  <ATP_Site>  (964) 
nan

>  <Peripheral>  (964) 
nan

>  <Num_H_Atoms_ProtBoundConf>  (964) 
nan

>  <Num_Resolved_Atoms>  (964) 
nan

>  <Num_Not_Resolved_Atoms>  (964) 
nan

$$$$
CHEMBL1517466
     RDKit          3D

  0  0  0  0  0  0  0  0  0  0999 V3000
M  V30 BEGIN CTAB
M  V30 COUNTS 62 65 0 0 0
M  V30 BEGIN ATOM
M  V30 1 C 2.585261 -1.234833 5.160430 0
M  V30 2 O 2.403188 -0.666170 3.877621 0
M  V30 3 C 3.046159 0.536717 3.619769 0
M  V30 4 C 3.844098 1.170373 4.579915 0
M  V30 5 C 4.493771 2.363107 4.353387 0
M  V30 6 C 4.344887 2.966784 3.099618 0
M  V30 7 C 3.574281 2.397226 2.108877 0
M  V30 8 C 2.957250 1.204530 2.412073 0
M  V30 9 C 2.117077 0.506800 1.432141 0
M  V30 10 N 2.900463 -0.089579 0.574175 0
M  V30 11 O 2.176311 -0.765425 -0.375820 0
M  V30 12 C 0.935990 -1.088587 0.265829 0
M  V30 13 C -0.070457 -1.386413 -0.793982 0
M  V30 14 N -1.361003 -1.726010 -0.296095 0
M  V30 15 C -2.254867 -0.747872 -0.109784 0
M  V30 16 N -2.479857 0.644923 -0.233296 0
M  V30 17 C -3.140305 1.354038 -1.309417 0
M  V30 18 C -2.417940 1.215967 -2.618370 0
M  V30 19 O -1.147255 1.735407 -2.486750 0
M  V30 20 C -0.444543 1.613108 -3.704403 0
M  V30 21 C 0.960676 2.191626 -3.536653 0
M  V30 22 O 1.699817 2.099231 -4.701821 0
M  V30 23 N -3.384807 -1.340801 0.378642 0
M  V30 24 C -3.173513 -2.677800 0.487087 0
M  V30 25 C -1.884811 -2.911916 0.055926 0
M  V30 26 C -1.300468 -4.163426 0.020304 0
M  V30 27 O -0.123681 -4.305024 -0.383381 0
M  V30 28 N -2.029801 -5.211093 0.428804 0
M  V30 29 C -1.450684 -6.540134 0.407122 0
M  V30 30 C -3.301007 -5.002172 0.857034 0
M  V30 31 O -4.019397 -5.961427 1.249432 0
M  V30 32 N -3.851072 -3.771999 0.883362 0
M  V30 33 C -5.213031 -3.564285 1.344058 0
M  V30 34 C 0.700368 0.199975 1.019443 0
M  V30 35 H 3.663400 -1.414818 5.382474 0
M  V30 36 H 2.086720 -2.240489 5.167819 0
M  V30 37 H 2.138664 -0.605447 5.959672 0
M  V30 38 H 3.965234 0.712147 5.549968 0
M  V30 39 H 5.089424 2.797785 5.127040 0
M  V30 40 H 4.866672 3.918313 2.928144 0
M  V30 41 H 3.452864 2.861985 1.126724 0
M  V30 42 H 1.147362 -1.906927 0.950345 0
M  V30 43 H -0.074590 -0.530290 -1.491857 0
M  V30 44 H 0.326051 -2.248539 -1.381057 0
M  V30 45 H -2.115741 1.233673 0.568012 0
M  V30 46 H -4.188585 0.934122 -1.381143 0
M  V30 47 H -3.284953 2.418183 -1.085814 0
M  V30 48 H -3.040130 1.746026 -3.382767 0
M  V30 49 H -2.372628 0.157321 -2.966231 0
M  V30 50 H -0.997786 2.176672 -4.473066 0
M  V30 51 H -0.385680 0.533629 -3.911483 0
M  V30 52 H 1.459575 1.617775 -2.703183 0
M  V30 53 H 0.862333 3.273340 -3.286701 0
M  V30 54 H 2.201276 2.928464 -4.893168 0
M  V30 55 H -0.357498 -6.430652 0.562098 0
M  V30 56 H -1.691184 -7.060085 -0.560097 0
M  V30 57 H -1.882884 -7.159324 1.207056 0
M  V30 58 H -5.550768 -4.364208 2.025292 0
M  V30 59 H -5.334982 -2.556487 1.802257 0
M  V30 60 H -5.859366 -3.592815 0.442275 0
M  V30 61 H 0.121028 -0.051991 1.932758 0
M  V30 62 H 0.263891 0.985554 0.403062 0
M  V30 END ATOM
M  V30 BEGIN BOND
M  V30 1 1 1 2
M  V30 2 1 2 3
M  V30 3 2 3 4
M  V30 4 1 4 5
M  V30 5 2 5 6
M  V30 6 1 6 7
M  V30 7 2 7 8
M  V30 8 1 8 9
M  V30 9 2 9 10
M  V30 10 1 10 11
M  V30 11 1 11 12
M  V30 12 1 12 13
M  V30 13 1 13 14
M  V30 14 1 14 15
M  V30 15 1 15 16
M  V30 16 1 16 17
M  V30 17 1 17 18
M  V30 18 1 18 19
M  V30 19 1 19 20
M  V30 20 1 20 21
M  V30 21 1 21 22
M  V30 22 2 15 23
M  V30 23 1 23 24
M  V30 24 2 24 25
M  V30 25 1 25 26
M  V30 26 2 26 27
M  V30 27 1 26 28
M  V30 28 1 28 29
M  V30 29 1 28 30
M  V30 30 2 30 31
M  V30 31 1 30 32
M  V30 32 1 32 33
M  V30 33 1 12 34
M  V30 34 1 8 3
M  V30 35 1 34 9
M  V30 36 1 25 14
M  V30 37 1 32 24
M  V30 38 1 1 35
M  V30 39 1 1 36
M  V30 40 1 1 37
M  V30 41 1 4 38
M  V30 42 1 5 39
M  V30 43 1 6 40
M  V30 44 1 7 41
M  V30 45 1 12 42
M  V30 46 1 13 43
M  V30 47 1 13 44
M  V30 48 1 16 45
M  V30 49 1 17 46
M  V30 50 1 17 47
M  V30 51 1 18 48
M  V30 52 1 18 49
M  V30 53 1 20 50
M  V30 54 1 20 51
M  V30 55 1 21 52
M  V30 56 1 21 53
M  V30 57 1 22 54
M  V30 58 1 29 55
M  V30 59 1 29 56
M  V30 60 1 29 57
M  V30 61 1 33 58
M  V30 62 1 33 59
M  V30 63 1 33 60
M  V30 64 1 34 61
M  V30 65 1 34 62
M  V30 END BOND
M  V30 END CTAB
M  END
>  <Dataset>  (965) 
ChEMBL_Kinases

>  <Ligand_Instance>  (965) 
nan

>  <PDB_ID>  (965) 
nan

>  <Standardized_SMILES>  (965) 
COc1ccccc1C1=NOC(Cn2c(NCCOCCO)nc3c2c(=O)n(C)c(=O)n3C)C1

>  <Name>  (965) 
nan

>  <Pocket>  (965) 
nan

>  <ATP_Site>  (965) 
nan

>  <Peripheral>  (965) 
nan

>  <Num_H_Atoms_ProtBoundConf>  (965) 
nan

>  <Num_Resolved_Atoms>  (965) 
nan

>  <Num_Not_Resolved_Atoms>  (965) 
nan

$$$$
CHEMBL1517432
     RDKit          3D

  0  0  0  0  0  0  0  0  0  0999 V3000
M  V30 BEGIN CTAB
M  V30 COUNTS 48 51 0 0 0
M  V30 BEGIN ATOM
M  V30 1 O -0.428652 -3.959280 2.078933 0
M  V30 2 C 0.513807 -3.293950 1.529020 0
M  V30 3 C 1.253172 -2.602293 2.599523 0
M  V30 4 S 2.585279 -1.558750 2.060518 0
M  V30 5 C 2.106192 -0.087251 1.184976 0
M  V30 6 N 1.892128 -0.054429 -0.138514 0
M  V30 7 C 1.562878 1.032402 -0.850634 0
M  V30 8 C 1.358109 0.987397 -2.213730 0
M  V30 9 C 1.023445 2.157988 -2.853528 0
M  V30 10 C 0.894069 3.353536 -2.151960 0
M  V30 11 C 1.101574 3.380982 -0.794168 0
M  V30 12 C 1.436396 2.212421 -0.150627 0
M  V30 13 C 1.663451 2.141705 1.206172 0
M  V30 14 O 1.529944 3.269075 1.794728 0
M  V30 15 N 2.000115 1.032259 1.934965 0
M  V30 16 C 2.216260 1.264793 3.346623 0
M  V30 17 C 0.951328 1.170048 4.111514 0
M  V30 18 C 0.346308 0.279949 4.933529 0
M  V30 19 C -0.876461 0.738603 5.373372 0
M  V30 20 C -0.971174 1.953175 4.769742 0
M  V30 21 O 0.081466 2.167675 4.061440 0
M  V30 22 N 0.644817 -3.351262 0.138073 0
M  V30 23 C -0.157039 -4.073171 -0.785820 0
M  V30 24 C -1.474073 -3.518518 -1.088417 0
M  V30 25 C -2.590528 -3.889672 -0.351300 0
M  V30 26 C -3.840181 -3.377344 -0.619092 0
M  V30 27 C -4.045927 -2.465043 -1.638543 0
M  V30 28 C -2.963468 -2.065311 -2.400246 0
M  V30 29 C -1.718559 -2.606977 -2.096514 0
M  V30 30 H 1.710473 -3.416174 3.224868 0
M  V30 31 H 0.578634 -2.070734 3.302365 0
M  V30 32 H 1.455555 0.072469 -2.760374 0
M  V30 33 H 0.842706 2.223610 -3.923099 0
M  V30 34 H 0.634820 4.290138 -2.610648 0
M  V30 35 H 1.007882 4.302505 -0.214287 0
M  V30 36 H 2.593782 2.311742 3.459361 0
M  V30 37 H 2.988643 0.563519 3.754327 0
M  V30 38 H 0.842789 -0.661521 5.172331 0
M  V30 39 H -1.569749 0.244263 6.030716 0
M  V30 40 H -1.791056 2.675122 4.840444 0
M  V30 41 H 1.451797 -2.774025 -0.176561 0
M  V30 42 H 0.397270 -4.111268 -1.769944 0
M  V30 43 H -0.225372 -5.132930 -0.449857 0
M  V30 44 H -2.552970 -4.594617 0.467269 0
M  V30 45 H -4.716875 -3.645082 -0.067861 0
M  V30 46 H -5.024007 -2.063343 -1.848947 0
M  V30 47 H -3.074610 -1.350443 -3.212050 0
M  V30 48 H -0.900363 -2.269199 -2.713359 0
M  V30 END ATOM
M  V30 BEGIN BOND
M  V30 1 2 1 2
M  V30 2 1 2 3
M  V30 3 1 3 4
M  V30 4 1 4 5
M  V30 5 2 5 6
M  V30 6 1 6 7
M  V30 7 2 7 8
M  V30 8 1 8 9
M  V30 9 2 9 10
M  V30 10 1 10 11
M  V30 11 2 11 12
M  V30 12 1 12 13
M  V30 13 2 13 14
M  V30 14 1 13 15
M  V30 15 1 15 16
M  V30 16 1 16 17
M  V30 17 2 17 18
M  V30 18 1 18 19
M  V30 19 2 19 20
M  V30 20 1 20 21
M  V30 21 1 2 22
M  V30 22 1 22 23
M  V30 23 1 23 24
M  V30 24 2 24 25
M  V30 25 1 25 26
M  V30 26 2 26 27
M  V30 27 1 27 28
M  V30 28 2 28 29
M  V30 29 1 15 5
M  V30 30 1 21 17
M  V30 31 1 29 24
M  V30 32 1 12 7
M  V30 33 1 3 30
M  V30 34 1 3 31
M  V30 35 1 8 32
M  V30 36 1 9 33
M  V30 37 1 10 34
M  V30 38 1 11 35
M  V30 39 1 16 36
M  V30 40 1 16 37
M  V30 41 1 18 38
M  V30 42 1 19 39
M  V30 43 1 20 40
M  V30 44 1 22 41
M  V30 45 1 23 42
M  V30 46 1 23 43
M  V30 47 1 25 44
M  V30 48 1 26 45
M  V30 49 1 27 46
M  V30 50 1 28 47
M  V30 51 1 29 48
M  V30 END BOND
M  V30 END CTAB
M  END
>  <Dataset>  (966) 
ChEMBL_Kinases

>  <Ligand_Instance>  (966) 
nan

>  <PDB_ID>  (966) 
nan

>  <Standardized_SMILES>  (966) 
O=C(CSc1nc2ccccc2c(=O)n1Cc1ccco1)NCc1ccccc1

>  <Name>  (966) 
nan

>  <Pocket>  (966) 
nan

>  <ATP_Site>  (966) 
nan

>  <Peripheral>  (966) 
nan

>  <Num_H_Atoms_ProtBoundConf>  (966) 
nan

>  <Num_Resolved_Atoms>  (966) 
nan

>  <Num_Not_Resolved_Atoms>  (966) 
nan

$$$$
CHEMBL1517431
     RDKit          3D

  0  0  0  0  0  0  0  0  0  0999 V3000
M  V30 BEGIN CTAB
M  V30 COUNTS 62 65 0 0 0
M  V30 BEGIN ATOM
M  V30 1 C -1.182999 3.041155 1.471412 0
M  V30 2 O -0.843788 2.376600 2.688525 0
M  V30 3 C -0.388541 1.082982 2.732298 0
M  V30 4 C -0.192834 0.247648 1.645427 0
M  V30 5 C 0.272589 -1.052152 1.773652 0
M  V30 6 C 0.408917 -1.790893 0.466436 0
M  V30 7 N 0.981335 -1.006301 -0.572374 0
M  V30 8 C 2.293013 -0.453172 -0.529491 0
M  V30 9 C 3.155835 -0.636655 0.530877 0
M  V30 10 C 4.430019 -0.119830 0.623729 0
M  V30 11 C 4.907750 0.649127 -0.417185 0
M  V30 12 C 4.098369 0.872622 -1.508635 0
M  V30 13 C 2.836360 0.323865 -1.531505 0
M  V30 14 O 4.839399 1.669103 -2.382575 0
M  V30 15 C 5.854793 2.319992 -1.622847 0
M  V30 16 O 6.111109 1.308546 -0.648947 0
M  V30 17 C -0.898198 -2.326088 0.029038 0
M  V30 18 O -1.351765 -2.981018 1.001033 0
M  V30 19 N -1.668517 -2.267492 -1.125456 0
M  V30 20 C -2.934821 -2.892906 -1.291678 0
M  V30 21 C -3.038548 -3.917535 -2.360707 0
M  V30 22 C -3.161130 -3.366913 -3.758948 0
M  V30 23 C -3.479916 -1.911978 -3.822885 0
M  V30 24 C -4.502889 -1.610731 -2.781673 0
M  V30 25 C -3.970508 -1.799069 -1.384974 0
M  V30 26 C 0.552855 -1.531583 3.049957 0
M  V30 27 C 0.356417 -0.697036 4.127832 0
M  V30 28 O 0.653228 -1.227583 5.387567 0
M  V30 29 C 1.122790 -2.524501 5.581481 0
M  V30 30 C -0.105348 0.595424 4.011603 0
M  V30 31 O -0.255590 1.322600 5.185462 0
M  V30 32 C -1.500614 1.275655 5.878163 0
M  V30 33 H -0.229263 3.169844 0.905751 0
M  V30 34 H -1.576190 4.038508 1.778598 0
M  V30 35 H -1.931649 2.487960 0.897836 0
M  V30 36 H -0.441257 0.722924 0.707671 0
M  V30 37 H 1.063490 -2.691109 0.618779 0
M  V30 38 H 0.483537 -0.768027 -1.454096 0
M  V30 39 H 2.868749 -1.222824 1.380455 0
M  V30 40 H 5.081729 -0.279738 1.465585 0
M  V30 41 H 2.216185 0.523221 -2.420131 0
M  V30 42 H 6.729418 2.600038 -2.208525 0
M  V30 43 H 5.469179 3.182746 -1.070909 0
M  V30 44 H -1.210688 -1.704198 -1.874578 0
M  V30 45 H -3.132812 -3.408690 -0.324526 0
M  V30 46 H -2.192816 -4.624425 -2.227317 0
M  V30 47 H -3.950168 -4.531693 -2.190081 0
M  V30 48 H -3.917876 -3.896709 -4.376566 0
M  V30 49 H -2.199143 -3.506383 -4.336722 0
M  V30 50 H -3.934532 -1.690238 -4.822266 0
M  V30 51 H -2.590433 -1.254637 -3.778744 0
M  V30 52 H -4.867173 -0.548864 -2.880528 0
M  V30 53 H -5.377624 -2.246098 -2.937870 0
M  V30 54 H -3.566636 -0.814617 -1.063000 0
M  V30 55 H -4.870004 -1.974771 -0.753131 0
M  V30 56 H 0.909626 -2.550276 3.058939 0
M  V30 57 H 0.388591 -3.248170 5.123979 0
M  V30 58 H 2.137556 -2.688575 5.180013 0
M  V30 59 H 1.063777 -2.745438 6.676714 0
M  V30 60 H -2.089471 0.356005 5.627939 0
M  V30 61 H -1.373860 1.387665 6.975631 0
M  V30 62 H -2.160195 2.132446 5.560196 0
M  V30 END ATOM
M  V30 BEGIN BOND
M  V30 1 1 1 2
M  V30 2 1 2 3
M  V30 3 2 3 4
M  V30 4 1 4 5
M  V30 5 1 5 6
M  V30 6 1 6 7
M  V30 7 1 7 8
M  V30 8 2 8 9
M  V30 9 1 9 10
M  V30 10 2 10 11
M  V30 11 1 11 12
M  V30 12 2 12 13
M  V30 13 1 12 14
M  V30 14 1 14 15
M  V30 15 1 15 16
M  V30 16 1 6 17
M  V30 17 2 17 18
M  V30 18 1 17 19
M  V30 19 1 19 20
M  V30 20 1 20 21
M  V30 21 1 21 22
M  V30 22 1 22 23
M  V30 23 1 23 24
M  V30 24 1 24 25
M  V30 25 2 5 26
M  V30 26 1 26 27
M  V30 27 1 27 28
M  V30 28 1 28 29
M  V30 29 2 27 30
M  V30 30 1 30 31
M  V30 31 1 31 32
M  V30 32 1 30 3
M  V30 33 1 13 8
M  V30 34 1 25 20
M  V30 35 1 16 11
M  V30 36 1 1 33
M  V30 37 1 1 34
M  V30 38 1 1 35
M  V30 39 1 4 36
M  V30 40 1 6 37
M  V30 41 1 7 38
M  V30 42 1 9 39
M  V30 43 1 10 40
M  V30 44 1 13 41
M  V30 45 1 15 42
M  V30 46 1 15 43
M  V30 47 1 19 44
M  V30 48 1 20 45
M  V30 49 1 21 46
M  V30 50 1 21 47
M  V30 51 1 22 48
M  V30 52 1 22 49
M  V30 53 1 23 50
M  V30 54 1 23 51
M  V30 55 1 24 52
M  V30 56 1 24 53
M  V30 57 1 25 54
M  V30 58 1 25 55
M  V30 59 1 26 56
M  V30 60 1 29 57
M  V30 61 1 29 58
M  V30 62 1 29 59
M  V30 63 1 32 60
M  V30 64 1 32 61
M  V30 65 1 32 62
M  V30 END BOND
M  V30 END CTAB
M  END
>  <Dataset>  (967) 
ChEMBL_Kinases

>  <Ligand_Instance>  (967) 
nan

>  <PDB_ID>  (967) 
nan

>  <Standardized_SMILES>  (967) 
COc1cc(C(Nc2ccc3c(c2)OCO3)C(=O)NC2CCCCC2)cc(OC)c1OC

>  <Name>  (967) 
nan

>  <Pocket>  (967) 
nan

>  <ATP_Site>  (967) 
nan

>  <Peripheral>  (967) 
nan

>  <Num_H_Atoms_ProtBoundConf>  (967) 
nan

>  <Num_Resolved_Atoms>  (967) 
nan

>  <Num_Not_Resolved_Atoms>  (967) 
nan

$$$$
CHEMBL1517409
     RDKit          3D

  0  0  0  0  0  0  0  0  0  0999 V3000
M  V30 BEGIN CTAB
M  V30 COUNTS 24 25 0 0 0
M  V30 BEGIN ATOM
M  V30 1 C -0.436754 -4.458884 0.407112 0
M  V30 2 O -0.048158 -3.113074 0.605598 0
M  V30 3 C 0.991576 -2.744229 1.446758 0
M  V30 4 O 1.654948 -3.574874 2.085705 0
M  V30 5 C 1.302718 -1.323793 1.572790 0
M  V30 6 C 2.319511 -0.870533 2.386496 0
M  V30 7 C 2.601526 0.495500 2.493197 0
M  V30 8 Br 4.003130 1.140290 3.612934 0
M  V30 9 C 1.827760 1.397339 1.754375 0
M  V30 10 O 2.104178 2.618525 1.870256 0
M  V30 11 N 0.860326 0.931842 0.983455 0
M  V30 12 C 0.119862 1.941169 0.262415 0
M  V30 13 N -0.102729 3.092449 0.358125 0
M  V30 14 C -0.842563 3.816378 -0.467135 0
M  V30 15 C -1.418756 3.025588 -1.609059 0
M  V30 16 S -0.788268 1.399973 -1.277490 0
M  V30 17 C 0.595000 -0.359148 0.883624 0
M  V30 18 H 0.388536 -4.970452 -0.119995 0
M  V30 19 H -0.712613 -4.921478 1.377744 0
M  V30 20 H -1.316132 -4.446823 -0.279163 0
M  V30 21 H 2.918800 -1.576242 2.959419 0
M  V30 22 H -0.897481 4.874645 -0.158207 0
M  V30 23 H -2.057488 3.905868 -2.227468 0
M  V30 24 H -0.214790 -0.688290 0.232525 0
M  V30 END ATOM
M  V30 BEGIN BOND
M  V30 1 1 1 2
M  V30 2 1 2 3
M  V30 3 2 3 4
M  V30 4 1 3 5
M  V30 5 1 5 6
M  V30 6 2 6 7
M  V30 7 1 7 8
M  V30 8 1 7 9
M  V30 9 2 9 10
M  V30 10 1 9 11
M  V30 11 1 11 12
M  V30 12 2 12 13
M  V30 13 1 13 14
M  V30 14 2 14 15
M  V30 15 1 15 16
M  V30 16 1 11 17
M  V30 17 2 17 5
M  V30 18 1 16 12
M  V30 19 1 1 18
M  V30 20 1 1 19
M  V30 21 1 1 20
M  V30 22 1 6 21
M  V30 23 1 14 22
M  V30 24 1 15 23
M  V30 25 1 17 24
M  V30 END BOND
M  V30 END CTAB
M  END
>  <Dataset>  (968) 
ChEMBL_Kinases

>  <Ligand_Instance>  (968) 
nan

>  <PDB_ID>  (968) 
nan

>  <Standardized_SMILES>  (968) 
COC(=O)c1cc(Br)c(=O)n(-c2nccs2)c1

>  <Name>  (968) 
nan

>  <Pocket>  (968) 
nan

>  <ATP_Site>  (968) 
nan

>  <Peripheral>  (968) 
nan

>  <Num_H_Atoms_ProtBoundConf>  (968) 
nan

>  <Num_Resolved_Atoms>  (968) 
nan

>  <Num_Not_Resolved_Atoms>  (968) 
nan

$$$$
CHEMBL1517187
     RDKit          3D

  0  0  0  0  0  0  0  0  0  0999 V3000
M  V30 BEGIN CTAB
M  V30 COUNTS 96 95 0 0 0
M  V30 BEGIN ATOM
M  V30 1 C 0.594760 -1.556633 5.342436 0
M  V30 2 C 1.379756 -2.754581 5.778669 0
M  V30 3 C 2.103824 -3.510638 4.743124 0
M  V30 4 C 3.203948 -2.834980 4.003395 0
M  V30 5 C 2.777905 -1.636320 3.250740 0
M  V30 6 C 3.972295 -1.023963 2.467887 0
M  V30 7 C 3.373291 0.188252 1.763081 0
M  V30 8 C 4.377104 0.919498 0.950396 0
M  V30 9 C 3.872154 2.100544 0.246507 0
M  V30 10 C 3.335009 3.270631 0.922177 0
M  V30 11 C 2.162722 3.265171 1.782525 0
M  V30 12 C 0.844044 2.832396 1.185756 0
M  V30 13 C 0.386583 3.695315 0.067992 0
M  V30 14 C -0.937439 3.246581 -0.469633 0
M  V30 15 C -0.973686 1.864796 -1.049624 0
M  V30 16 C -0.023763 1.759179 -2.202144 0
M  V30 17 C -0.054607 0.415536 -2.848294 0
M  V30 18 C 0.296056 -0.699928 -1.943449 0
M  V30 19 O 0.621878 -0.697993 -0.739603 0
M  V30 20 N 0.240868 -1.986270 -2.597647 0
M  V30 21 C 0.556461 -3.173668 -1.859792 0
M  V30 22 C -0.291347 -3.450337 -0.669101 0 CFG=1
M  V30 23 C -1.734431 -3.690689 -0.933086 0
M  V30 24 O -2.370904 -2.577603 -1.478046 0
M  V30 25 P -4.035079 -2.847479 -1.586541 0
M  V30 26 O -4.625103 -2.573225 -0.201509 0
M  V30 27 O -4.434954 -4.423489 -1.973122 0 CHG=-1 VAL=1
M  V30 28 O -4.750276 -1.783001 -2.685195 0
M  V30 29 C -4.631783 -0.486413 -2.210481 0
M  V30 30 C -5.366450 0.524876 -3.032345 0
M  V30 31 N -4.923042 0.584556 -4.396814 0 CHG=1 VAL=4
M  V30 32 C -6.118355 0.409097 -5.226523 0
M  V30 33 C -4.019619 -0.463406 -4.767898 0
M  V30 34 C -4.330256 1.881168 -4.719138 0
M  V30 35 O 0.206128 -4.658603 -0.120741 0
M  V30 36 C 0.641410 -4.471669 1.185381 0
M  V30 37 C 1.155142 -5.793316 1.698957 0
M  V30 38 H 0.349177 -1.534409 4.277298 0
M  V30 39 H -0.404139 -1.605741 5.913678 0
M  V30 40 H 1.002181 -0.582420 5.666030 0
M  V30 41 H 0.741353 -3.480953 6.347216 0
M  V30 42 H 2.147030 -2.416086 6.543809 0
M  V30 43 H 2.444378 -4.515020 5.141792 0
M  V30 44 H 1.363792 -3.836777 3.932365 0
M  V30 45 H 3.623025 -3.593740 3.263847 0
M  V30 46 H 4.091130 -2.627559 4.664612 0
M  V30 47 H 1.953689 -1.788081 2.548256 0
M  V30 48 H 2.507019 -0.778028 3.929869 0
M  V30 49 H 4.342421 -1.760934 1.764777 0
M  V30 50 H 4.722840 -0.681962 3.171240 0
M  V30 51 H 2.758086 0.728539 2.458455 0
M  V30 52 H 2.651286 -0.272260 1.019620 0
M  V30 53 H 5.346589 1.078517 1.490804 0
M  V30 54 H 4.696584 0.161814 0.157398 0
M  V30 55 H 3.166814 1.688314 -0.562144 0
M  V30 56 H 4.720043 2.463359 -0.437454 0
M  V30 57 H 3.248546 4.097656 0.131693 0
M  V30 58 H 4.193594 3.708926 1.543985 0
M  V30 59 H 1.932361 4.383359 2.034916 0
M  V30 60 H 2.246266 2.863941 2.797482 0
M  V30 61 H 0.041582 2.807628 1.950902 0
M  V30 62 H 0.904992 1.788131 0.808453 0
M  V30 63 H 0.213815 4.739719 0.463667 0
M  V30 64 H 1.077528 3.724225 -0.794707 0
M  V30 65 H -1.331953 3.932802 -1.255487 0
M  V30 66 H -1.734699 3.305978 0.337548 0
M  V30 67 H -0.821089 1.084631 -0.289987 0
M  V30 68 H -2.002182 1.715583 -1.443161 0
M  V30 69 H -0.277356 2.540659 -2.932005 0
M  V30 70 H 1.031413 1.953382 -1.912915 0
M  V30 71 H -1.084588 0.272973 -3.266049 0
M  V30 72 H 0.697243 0.459800 -3.689935 0
M  V30 73 H -0.028165 -2.100702 -3.622876 0
M  V30 74 H 0.503295 -4.072160 -2.509228 0
M  V30 75 H 1.624702 -3.160803 -1.507228 0
M  V30 76 H -0.169267 -2.718668 0.149583 0
M  V30 77 H -2.226633 -3.876529 0.042517 0
M  V30 78 H -1.887525 -4.602230 -1.547089 0
M  V30 79 H -5.027225 -0.497873 -1.168054 0
M  V30 80 H -3.551242 -0.248841 -2.096537 0
M  V30 81 H -5.158931 1.523816 -2.557801 0
M  V30 82 H -6.458431 0.351977 -2.916148 0
M  V30 83 H -6.940308 0.930813 -4.706827 0
M  V30 84 H -6.323060 -0.688269 -5.245378 0
M  V30 85 H -5.904306 0.801760 -6.229198 0
M  V30 86 H -3.189309 -0.608593 -4.070095 0
M  V30 87 H -3.532530 -0.162760 -5.739596 0
M  V30 88 H -4.532657 -1.425895 -5.028413 0
M  V30 89 H -4.609911 2.587648 -3.916069 0
M  V30 90 H -4.766218 2.244282 -5.684649 0
M  V30 91 H -3.242519 1.764569 -4.833169 0
M  V30 92 H 1.478202 -3.723036 1.219342 0
M  V30 93 H -0.217772 -4.175565 1.825641 0
M  V30 94 H 2.272894 -5.820397 1.689081 0
M  V30 95 H 0.837086 -5.931905 2.754707 0
M  V30 96 H 0.719889 -6.619145 1.097006 0
M  V30 END ATOM
M  V30 BEGIN BOND
M  V30 1 1 1 2
M  V30 2 1 2 3
M  V30 3 1 3 4
M  V30 4 1 4 5
M  V30 5 1 5 6
M  V30 6 1 6 7
M  V30 7 1 7 8
M  V30 8 1 8 9
M  V30 9 1 9 10
M  V30 10 1 10 11
M  V30 11 1 11 12
M  V30 12 1 12 13
M  V30 13 1 13 14
M  V30 14 1 14 15
M  V30 15 1 15 16
M  V30 16 1 16 17
M  V30 17 1 17 18
M  V30 18 2 18 19
M  V30 19 1 18 20
M  V30 20 1 20 21
M  V30 21 1 21 22
M  V30 22 1 22 23
M  V30 23 1 23 24
M  V30 24 1 24 25
M  V30 25 2 25 26
M  V30 26 1 25 27
M  V30 27 1 25 28
M  V30 28 1 28 29
M  V30 29 1 29 30
M  V30 30 1 30 31
M  V30 31 1 31 32
M  V30 32 1 31 33
M  V30 33 1 31 34
M  V30 34 1 22 35
M  V30 35 1 35 36
M  V30 36 1 36 37
M  V30 37 1 1 38
M  V30 38 1 1 39
M  V30 39 1 1 40
M  V30 40 1 2 41
M  V30 41 1 2 42
M  V30 42 1 3 43
M  V30 43 1 3 44
M  V30 44 1 4 45
M  V30 45 1 4 46
M  V30 46 1 5 47
M  V30 47 1 5 48
M  V30 48 1 6 49
M  V30 49 1 6 50
M  V30 50 1 7 51
M  V30 51 1 7 52
M  V30 52 1 8 53
M  V30 53 1 8 54
M  V30 54 1 9 55
M  V30 55 1 9 56
M  V30 56 1 10 57
M  V30 57 1 10 58
M  V30 58 1 11 59
M  V30 59 1 11 60
M  V30 60 1 12 61
M  V30 61 1 12 62
M  V30 62 1 13 63
M  V30 63 1 13 64
M  V30 64 1 14 65
M  V30 65 1 14 66
M  V30 66 1 15 67
M  V30 67 1 15 68
M  V30 68 1 16 69
M  V30 69 1 16 70
M  V30 70 1 17 71
M  V30 71 1 17 72
M  V30 72 1 20 73
M  V30 73 1 21 74
M  V30 74 1 21 75
M  V30 75 1 22 76 CFG=1
M  V30 76 1 23 77
M  V30 77 1 23 78
M  V30 78 1 29 79
M  V30 79 1 29 80
M  V30 80 1 30 81
M  V30 81 1 30 82
M  V30 82 1 32 83
M  V30 83 1 32 84
M  V30 84 1 32 85
M  V30 85 1 33 86
M  V30 86 1 33 87
M  V30 87 1 33 88
M  V30 88 1 34 89
M  V30 89 1 34 90
M  V30 90 1 34 91
M  V30 91 1 36 92
M  V30 92 1 36 93
M  V30 93 1 37 94
M  V30 94 1 37 95
M  V30 95 1 37 96
M  V30 END BOND
M  V30 END CTAB
M  END
>  <Dataset>  (969) 
ChEMBL_Kinases

>  <Ligand_Instance>  (969) 
nan

>  <PDB_ID>  (969) 
nan

>  <Standardized_SMILES>  (969) 
CCCCCCCCCCCCCCCCCC(=O)NC[C@@H](COP(=O)([O-])OCC[N+](C)(C)C)OCC

>  <Name>  (969) 
nan

>  <Pocket>  (969) 
nan

>  <ATP_Site>  (969) 
nan

>  <Peripheral>  (969) 
nan

>  <Num_H_Atoms_ProtBoundConf>  (969) 
nan

>  <Num_Resolved_Atoms>  (969) 
nan

>  <Num_Not_Resolved_Atoms>  (969) 
nan

$$$$
CHEMBL1517054
     RDKit          3D

  0  0  0  0  0  0  0  0  0  0999 V3000
M  V30 BEGIN CTAB
M  V30 COUNTS 44 46 0 0 0
M  V30 BEGIN ATOM
M  V30 1 C 0.515499 -2.973584 -0.108632 0
M  V30 2 N 1.137105 -1.687431 -0.122601 0
M  V30 3 C 2.401938 -1.333156 0.374392 0
M  V30 4 C 3.001730 -0.137399 0.198473 0
M  V30 5 C 4.120269 0.541808 0.523231 0
M  V30 6 C 4.924938 -0.344373 1.334492 0
M  V30 7 C 4.475717 -1.646193 1.641093 0
M  V30 8 C 3.241456 -2.117807 1.168056 0
M  V30 9 C 0.344217 -0.654675 -0.656682 0
M  V30 10 N 0.480788 -0.136825 -1.918350 0
M  V30 11 C -0.349396 0.868358 -2.354441 0
M  V30 12 N -0.269979 1.476752 -3.616942 0
M  V30 13 C -1.242807 1.211580 -1.385633 0
M  V30 14 N -2.126812 2.273690 -1.766250 0 CHG=1 VAL=4
M  V30 15 O -1.485208 3.340624 -1.758270 0
M  V30 16 O -2.953763 3.300108 -2.123489 0 CHG=-1 VAL=1
M  V30 17 C -1.481951 0.786777 -0.135018 0
M  V30 18 N -2.401773 1.135366 0.864012 0
M  V30 19 C -2.617136 0.644822 2.184269 0
M  V30 20 C -1.712123 -0.454953 2.627498 0
M  V30 21 C -0.452483 -0.009083 2.944521 0
M  V30 22 C 0.386182 -0.994870 3.402822 0
M  V30 23 C 0.161392 -2.344576 3.590468 0
M  V30 24 C -1.145203 -2.684324 3.247082 0
M  V30 25 C -2.102135 -1.796655 2.766965 0
M  V30 26 N -0.595927 -0.205915 0.183707 0
M  V30 27 H 0.101747 -3.209353 -1.138736 0
M  V30 28 H 1.281546 -3.780923 0.081963 0
M  V30 29 H -0.298211 -3.107960 0.642240 0
M  V30 30 H 2.403620 0.552406 -0.434181 0
M  V30 31 H 4.484820 1.502586 0.291682 0
M  V30 32 H 5.889788 -0.084262 1.757213 0
M  V30 33 H 5.062653 -2.349935 2.269115 0
M  V30 34 H 2.887395 -3.128690 1.419791 0
M  V30 35 H 0.576452 2.039813 -3.752857 0
M  V30 36 H 0.641349 1.989090 -3.545508 0
M  V30 37 H -3.111077 1.899846 0.740954 0
M  V30 38 H -2.769688 1.393365 2.951824 0
M  V30 39 H -3.655656 0.120123 2.145164 0
M  V30 40 H -0.072860 0.990596 2.882939 0
M  V30 41 H 1.415905 -0.715151 3.663921 0
M  V30 42 H 0.867353 -3.057142 3.968729 0
M  V30 43 H -1.448823 -3.728720 3.346139 0
M  V30 44 H -3.112965 -2.054571 2.482423 0
M  V30 END ATOM
M  V30 BEGIN BOND
M  V30 1 1 1 2
M  V30 2 1 2 3
M  V30 3 2 3 4
M  V30 4 1 4 5
M  V30 5 2 5 6
M  V30 6 1 6 7
M  V30 7 2 7 8
M  V30 8 1 2 9
M  V30 9 2 9 10
M  V30 10 1 10 11
M  V30 11 1 11 12
M  V30 12 2 11 13
M  V30 13 1 13 14
M  V30 14 2 14 15
M  V30 15 1 14 16
M  V30 16 1 13 17
M  V30 17 1 17 18
M  V30 18 1 18 19
M  V30 19 1 19 20
M  V30 20 2 20 21
M  V30 21 1 21 22
M  V30 22 2 22 23
M  V30 23 1 23 24
M  V30 24 2 24 25
M  V30 25 2 17 26
M  V30 26 1 8 3
M  V30 27 1 26 9
M  V30 28 1 25 20
M  V30 29 1 1 27
M  V30 30 1 1 28
M  V30 31 1 1 29
M  V30 32 1 4 30
M  V30 33 1 5 31
M  V30 34 1 6 32
M  V30 35 1 7 33
M  V30 36 1 8 34
M  V30 37 1 12 35
M  V30 38 1 12 36
M  V30 39 1 18 37
M  V30 40 1 19 38
M  V30 41 1 19 39
M  V30 42 1 21 40
M  V30 43 1 22 41
M  V30 44 1 23 42
M  V30 45 1 24 43
M  V30 46 1 25 44
M  V30 END BOND
M  V30 END CTAB
M  END
>  <Dataset>  (970) 
ChEMBL_Kinases

>  <Ligand_Instance>  (970) 
nan

>  <PDB_ID>  (970) 
nan

>  <Standardized_SMILES>  (970) 
CN(c1ccccc1)c1nc(N)c([N+](=O)[O-])c(NCc2ccccc2)n1

>  <Name>  (970) 
nan

>  <Pocket>  (970) 
nan

>  <ATP_Site>  (970) 
nan

>  <Peripheral>  (970) 
nan

>  <Num_H_Atoms_ProtBoundConf>  (970) 
nan

>  <Num_Resolved_Atoms>  (970) 
nan

>  <Num_Not_Resolved_Atoms>  (970) 
nan

$$$$
CHEMBL1517051
     RDKit          3D

  0  0  0  0  0  0  0  0  0  0999 V3000
M  V30 BEGIN CTAB
M  V30 COUNTS 42 45 0 0 0
M  V30 BEGIN ATOM
M  V30 1 N -3.583877 -3.130930 -0.255044 0
M  V30 2 C -2.495895 -3.253384 0.115907 0
M  V30 3 C -1.113565 -3.404011 0.572004 0
M  V30 4 C -0.126050 -2.719257 -0.295404 0
M  V30 5 N -0.234551 -1.331093 -0.465271 0
M  V30 6 C -0.965645 -0.777089 -1.449835 0
M  V30 7 O -1.560428 -1.564249 -2.228239 0
M  V30 8 C -1.125807 0.566795 -1.687850 0
M  V30 9 C -1.897437 1.165457 -2.727279 0
M  V30 10 C -2.647299 0.652151 -3.717227 0
M  V30 11 C -3.308975 1.440092 -4.613575 0
M  V30 12 C -3.133623 2.871371 -4.406184 0
M  V30 13 S -2.029429 2.932203 -2.935669 0
M  V30 14 N -0.460008 1.350547 -0.814729 0
M  V30 15 C 0.286694 0.867359 0.189344 0
M  V30 16 C 0.905346 1.820405 0.996479 0
M  V30 17 N 1.656491 1.292487 2.007224 0
M  V30 18 C 1.770612 -0.030035 2.183472 0
M  V30 19 N 2.567007 -0.523980 3.253885 0
M  V30 20 C 3.269978 0.350654 4.175478 0
M  V30 21 C 3.367221 -0.396494 5.498843 0
M  V30 22 O 4.176714 -1.519159 5.366778 0
M  V30 23 C 4.114551 -2.089664 4.119984 0
M  V30 24 C 2.723699 -1.947439 3.487896 0
M  V30 25 N 1.156467 -0.894803 1.380729 0
M  V30 26 C 0.389495 -0.498084 0.351277 0
M  V30 27 H -0.892176 -4.494016 0.516902 0
M  V30 28 H -1.026981 -3.167359 1.647104 0
M  V30 29 H -0.156549 -3.204536 -1.294983 0
M  V30 30 H 0.884580 -2.957913 0.103188 0
M  V30 31 H -2.741280 -0.419033 -3.822770 0
M  V30 32 H -3.932061 1.122132 -5.438156 0
M  V30 33 H -3.652745 3.635780 -5.112122 0
M  V30 34 H 0.778240 2.866741 0.808006 0
M  V30 35 H 4.304248 0.564696 3.806575 0
M  V30 36 H 2.694443 1.284714 4.354021 0
M  V30 37 H 3.702687 0.276861 6.305691 0
M  V30 38 H 2.337045 -0.752965 5.724697 0
M  V30 39 H 4.259218 -3.192005 4.247213 0
M  V30 40 H 4.883940 -1.733008 3.412845 0
M  V30 41 H 1.965601 -2.360180 4.153399 0
M  V30 42 H 2.754997 -2.492306 2.517111 0
M  V30 END ATOM
M  V30 BEGIN BOND
M  V30 1 3 1 2
M  V30 2 1 2 3
M  V30 3 1 3 4
M  V30 4 1 4 5
M  V30 5 1 5 6
M  V30 6 2 6 7
M  V30 7 1 6 8
M  V30 8 1 8 9
M  V30 9 2 9 10
M  V30 10 1 10 11
M  V30 11 2 11 12
M  V30 12 1 12 13
M  V30 13 2 8 14
M  V30 14 1 14 15
M  V30 15 2 15 16
M  V30 16 1 16 17
M  V30 17 2 17 18
M  V30 18 1 18 19
M  V30 19 1 19 20
M  V30 20 1 20 21
M  V30 21 1 21 22
M  V30 22 1 22 23
M  V30 23 1 23 24
M  V30 24 1 18 25
M  V30 25 2 25 26
M  V30 26 1 26 5
M  V30 27 1 13 9
M  V30 28 1 26 15
M  V30 29 1 24 19
M  V30 30 1 3 27
M  V30 31 1 3 28
M  V30 32 1 4 29
M  V30 33 1 4 30
M  V30 34 1 10 31
M  V30 35 1 11 32
M  V30 36 1 12 33
M  V30 37 1 16 34
M  V30 38 1 20 35
M  V30 39 1 20 36
M  V30 40 1 21 37
M  V30 41 1 21 38
M  V30 42 1 23 39
M  V30 43 1 23 40
M  V30 44 1 24 41
M  V30 45 1 24 42
M  V30 END BOND
M  V30 END CTAB
M  END
>  <Dataset>  (971) 
ChEMBL_Kinases

>  <Ligand_Instance>  (971) 
nan

>  <PDB_ID>  (971) 
nan

>  <Standardized_SMILES>  (971) 
N#CCCn1c(=O)c(-c2cccs2)nc2cnc(N3CCOCC3)nc21

>  <Name>  (971) 
nan

>  <Pocket>  (971) 
nan

>  <ATP_Site>  (971) 
nan

>  <Peripheral>  (971) 
nan

>  <Num_H_Atoms_ProtBoundConf>  (971) 
nan

>  <Num_Resolved_Atoms>  (971) 
nan

>  <Num_Not_Resolved_Atoms>  (971) 
nan

$$$$
CHEMBL1517037
     RDKit          3D

  0  0  0  0  0  0  0  0  0  0999 V3000
M  V30 BEGIN CTAB
M  V30 COUNTS 36 38 0 0 0
M  V30 BEGIN ATOM
M  V30 1 C -1.115769 0.781257 5.148177 0
M  V30 2 C -0.565162 0.164738 3.917178 0
M  V30 3 C -0.905228 -1.121254 3.568314 0
M  V30 4 C -0.422011 -1.745147 2.433139 0
M  V30 5 C 0.434765 -1.086047 1.594841 0
M  V30 6 C 1.062472 -1.569677 0.336237 0
M  V30 7 C 2.419313 -0.992884 0.184498 0
M  V30 8 C 3.372430 -1.215826 1.229720 0
M  V30 9 N 4.147675 -1.388697 2.070773 0
M  V30 10 C 2.699552 -0.298294 -0.901625 0
M  V30 11 N 4.021333 0.210529 -0.952243 0
M  V30 12 O 1.881434 -0.007929 -1.979910 0
M  V30 13 C 0.589699 -0.500231 -1.939810 0
M  V30 14 C -0.257409 -0.235990 -2.989662 0
M  V30 15 C -1.562486 -0.725572 -2.963625 0
M  V30 16 N -2.410946 -0.437075 -4.058774 0
M  V30 17 C -1.939354 -1.466912 -1.856467 0
M  V30 18 C -1.050980 -1.716301 -0.806279 0
M  V30 19 C 0.236819 -1.232168 -0.833841 0
M  V30 20 C 0.789300 0.215843 1.932771 0
M  V30 21 C 0.304299 0.831784 3.065344 0
M  V30 22 H -0.508533 0.466049 6.039740 0
M  V30 23 H -0.959540 1.892885 5.055986 0
M  V30 24 H -2.181530 0.551495 5.303751 0
M  V30 25 H -1.573015 -1.719590 4.165406 0
M  V30 26 H -0.661176 -2.752105 2.120955 0
M  V30 27 H 1.152377 -2.693777 0.365823 0
M  V30 28 H 4.051180 1.077703 -0.343494 0
M  V30 29 H 5.007590 0.494471 -1.058230 0
M  V30 30 H 0.075456 0.346470 -3.834976 0
M  V30 31 H -2.854379 0.451848 -4.340376 0
M  V30 32 H -2.563565 -1.298016 -4.615292 0
M  V30 33 H -2.966811 -1.802835 -1.926627 0
M  V30 34 H -1.551518 -2.306935 -0.058255 0
M  V30 35 H 1.458532 0.853757 1.359927 0
M  V30 36 H 0.558851 1.847560 3.361892 0
M  V30 END ATOM
M  V30 BEGIN BOND
M  V30 1 1 1 2
M  V30 2 2 2 3
M  V30 3 1 3 4
M  V30 4 2 4 5
M  V30 5 1 5 6
M  V30 6 1 6 7
M  V30 7 1 7 8
M  V30 8 3 8 9
M  V30 9 2 7 10
M  V30 10 1 10 11
M  V30 11 1 10 12
M  V30 12 1 12 13
M  V30 13 2 13 14
M  V30 14 1 14 15
M  V30 15 1 15 16
M  V30 16 2 15 17
M  V30 17 1 17 18
M  V30 18 2 18 19
M  V30 19 1 5 20
M  V30 20 2 20 21
M  V30 21 1 21 2
M  V30 22 1 19 6
M  V30 23 1 19 13
M  V30 24 1 1 22
M  V30 25 1 1 23
M  V30 26 1 1 24
M  V30 27 1 3 25
M  V30 28 1 4 26
M  V30 29 1 6 27
M  V30 30 1 11 28
M  V30 31 1 11 29
M  V30 32 1 14 30
M  V30 33 1 16 31
M  V30 34 1 16 32
M  V30 35 1 17 33
M  V30 36 1 18 34
M  V30 37 1 20 35
M  V30 38 1 21 36
M  V30 END BOND
M  V30 END CTAB
M  END
>  <Dataset>  (972) 
ChEMBL_Kinases

>  <Ligand_Instance>  (972) 
nan

>  <PDB_ID>  (972) 
nan

>  <Standardized_SMILES>  (972) 
Cc1ccc(C2C(C#N)=C(N)Oc3cc(N)ccc32)cc1

>  <Name>  (972) 
nan

>  <Pocket>  (972) 
nan

>  <ATP_Site>  (972) 
nan

>  <Peripheral>  (972) 
nan

>  <Num_H_Atoms_ProtBoundConf>  (972) 
nan

>  <Num_Resolved_Atoms>  (972) 
nan

>  <Num_Not_Resolved_Atoms>  (972) 
nan

$$$$
CHEMBL1516965
     RDKit          3D

  0  0  0  0  0  0  0  0  0  0999 V3000
M  V30 BEGIN CTAB
M  V30 COUNTS 51 54 0 0 0
M  V30 BEGIN ATOM
M  V30 1 C 0.181429 -6.981883 2.831278 0
M  V30 2 C 0.788300 -5.689735 2.405628 0
M  V30 3 C 1.957833 -5.636565 1.686824 0
M  V30 4 C 2.533876 -4.444317 1.288044 0
M  V30 5 C 1.933311 -3.239470 1.608999 0
M  V30 6 S 2.434795 -1.610572 1.245812 0
M  V30 7 O 2.119476 -0.678120 2.393988 0
M  V30 8 O 3.956849 -1.652137 1.149792 0
M  V30 9 N 1.851955 -0.969398 -0.196901 0
M  V30 10 C 0.453785 -0.829534 -0.360714 0
M  V30 11 C 0.150945 0.572380 -0.878094 0
M  V30 12 C 0.616122 1.643720 0.009229 0
M  V30 13 O 1.846868 1.324797 0.130167 0
M  V30 14 N 0.075358 2.783190 0.662057 0
M  V30 15 C 0.898912 3.634960 1.539802 0
M  V30 16 C -0.116730 3.812301 2.677557 0
M  V30 17 C -1.383344 4.024024 1.930644 0
M  V30 18 C -2.612846 4.659164 2.123247 0
M  V30 19 C -3.603875 4.648677 1.155970 0
M  V30 20 C -3.364803 3.980597 -0.050273 0
M  V30 21 C -2.175712 3.332375 -0.311214 0
M  V30 22 C -1.210425 3.375367 0.701598 0
M  V30 23 C 0.093528 -1.718474 -1.544832 0
M  V30 24 C -0.919933 -2.621283 -1.749502 0
M  V30 25 C -0.753577 -3.143033 -3.024414 0
M  V30 26 C 0.358884 -2.528604 -3.535465 0
M  V30 27 O 0.840948 -1.696925 -2.651942 0
M  V30 28 C 0.739648 -3.281204 2.342238 0
M  V30 29 C 0.194160 -4.471026 2.722727 0
M  V30 30 H 0.935972 -7.706642 3.177078 0
M  V30 31 H -0.487440 -6.793053 3.706351 0
M  V30 32 H -0.464771 -7.332819 2.004228 0
M  V30 33 H 2.485686 -6.533137 1.397631 0
M  V30 34 H 3.443796 -4.301667 0.726869 0
M  V30 35 H 2.311691 -1.246116 -1.062023 0
M  V30 36 H -0.173229 -1.128951 0.486678 0
M  V30 37 H -0.955341 0.694859 -0.971747 0
M  V30 38 H 0.596642 0.716828 -1.894168 0
M  V30 39 H 1.820162 3.142176 1.860101 0
M  V30 40 H 1.104492 4.612944 1.046254 0
M  V30 41 H -0.151948 2.828498 3.195626 0
M  V30 42 H 0.148635 4.620292 3.366100 0
M  V30 43 H -2.680614 5.145304 3.109643 0
M  V30 44 H -4.530644 5.166075 1.387346 0
M  V30 45 H -4.148111 3.981879 -0.794378 0
M  V30 46 H -1.988093 2.814578 -1.250520 0
M  V30 47 H -1.649463 -2.815142 -1.005610 0
M  V30 48 H -1.393901 -3.879348 -3.476959 0
M  V30 49 H 0.711241 -2.765238 -4.539628 0
M  V30 50 H 0.162752 -2.405667 2.659688 0
M  V30 51 H -0.735547 -4.541635 3.293853 0
M  V30 END ATOM
M  V30 BEGIN BOND
M  V30 1 1 1 2
M  V30 2 2 2 3
M  V30 3 1 3 4
M  V30 4 2 4 5
M  V30 5 1 5 6
M  V30 6 2 6 7
M  V30 7 2 6 8
M  V30 8 1 6 9
M  V30 9 1 9 10
M  V30 10 1 10 11
M  V30 11 1 11 12
M  V30 12 2 12 13
M  V30 13 1 12 14
M  V30 14 1 14 15
M  V30 15 1 15 16
M  V30 16 1 16 17
M  V30 17 2 17 18
M  V30 18 1 18 19
M  V30 19 2 19 20
M  V30 20 1 20 21
M  V30 21 2 21 22
M  V30 22 1 10 23
M  V30 23 2 23 24
M  V30 24 1 24 25
M  V30 25 2 25 26
M  V30 26 1 26 27
M  V30 27 1 5 28
M  V30 28 2 28 29
M  V30 29 1 29 2
M  V30 30 1 22 14
M  V30 31 1 27 23
M  V30 32 1 22 17
M  V30 33 1 1 30
M  V30 34 1 1 31
M  V30 35 1 1 32
M  V30 36 1 3 33
M  V30 37 1 4 34
M  V30 38 1 9 35
M  V30 39 1 10 36
M  V30 40 1 11 37
M  V30 41 1 11 38
M  V30 42 1 15 39
M  V30 43 1 15 40
M  V30 44 1 16 41
M  V30 45 1 16 42
M  V30 46 1 18 43
M  V30 47 1 19 44
M  V30 48 1 20 45
M  V30 49 1 21 46
M  V30 50 1 24 47
M  V30 51 1 25 48
M  V30 52 1 26 49
M  V30 53 1 28 50
M  V30 54 1 29 51
M  V30 END BOND
M  V30 END CTAB
M  END
>  <Dataset>  (973) 
ChEMBL_Kinases

>  <Ligand_Instance>  (973) 
nan

>  <PDB_ID>  (973) 
nan

>  <Standardized_SMILES>  (973) 
Cc1ccc(S(=O)(=O)NC(CC(=O)N2CCc3ccccc32)c2ccco2)cc1

>  <Name>  (973) 
nan

>  <Pocket>  (973) 
nan

>  <ATP_Site>  (973) 
nan

>  <Peripheral>  (973) 
nan

>  <Num_H_Atoms_ProtBoundConf>  (973) 
nan

>  <Num_Resolved_Atoms>  (973) 
nan

>  <Num_Not_Resolved_Atoms>  (973) 
nan

$$$$
CHEMBL1516948
     RDKit          3D

  0  0  0  0  0  0  0  0  0  0999 V3000
M  V30 BEGIN CTAB
M  V30 COUNTS 43 46 0 0 0
M  V30 BEGIN ATOM
M  V30 1 C -0.015920 -6.668268 0.646456 0
M  V30 2 C 0.190025 -5.684750 -0.454952 0
M  V30 3 C -0.346824 -5.829338 -1.720111 0
M  V30 4 C -0.139206 -4.898554 -2.726032 0
M  V30 5 C 0.629663 -3.784161 -2.464719 0
M  V30 6 C 1.186998 -3.596218 -1.215966 0
M  V30 7 N 2.004463 -2.450189 -0.870364 0
M  V30 8 C 1.309973 -1.322855 -0.345340 0
M  V30 9 N 0.078418 -1.013906 -0.385948 0
M  V30 10 C -0.292913 0.173742 0.231354 0
M  V30 11 O -1.502494 0.323435 0.102600 0
M  V30 12 C 0.768566 0.903490 0.839648 0
M  V30 13 C 0.735999 2.019061 1.480267 0
M  V30 14 C 1.887470 2.678712 2.063436 0
M  V30 15 O 3.073518 2.268045 2.031474 0
M  V30 16 N 1.425853 3.874284 2.676933 0
M  V30 17 C 2.298322 4.799805 3.365818 0
M  V30 18 C 0.000164 3.903019 2.445552 0
M  V30 19 C -0.804196 4.926965 2.900243 0
M  V30 20 C -2.155155 4.863291 2.628778 0
M  V30 21 C -2.612344 3.751814 1.904287 0
M  V30 22 C -1.720037 2.788592 1.500086 0
M  V30 23 C -0.404571 2.801035 1.735631 0
M  V30 24 S 2.233122 -0.066544 0.536602 0
M  V30 25 C 0.966607 -4.543123 -0.218506 0
M  V30 26 C 1.585258 -4.316515 1.136406 0
M  V30 27 H 0.866527 -7.336580 0.664942 0
M  V30 28 H -0.160031 -6.177517 1.635700 0
M  V30 29 H -0.957075 -7.214448 0.437904 0
M  V30 30 H -0.950941 -6.716680 -1.905405 0
M  V30 31 H -0.583404 -5.061964 -3.698220 0
M  V30 32 H 0.817884 -3.022610 -3.236047 0
M  V30 33 H 3.036412 -2.471109 -1.006546 0
M  V30 34 H 2.462338 4.464224 4.415156 0
M  V30 35 H 3.271827 4.893299 2.830253 0
M  V30 36 H 1.745999 5.768280 3.437076 0
M  V30 37 H -0.456163 5.764696 3.446890 0
M  V30 38 H -2.797610 5.655903 2.977301 0
M  V30 39 H -3.697829 3.803870 1.746085 0
M  V30 40 H -2.276270 2.068454 0.985922 0
M  V30 41 H 2.630869 -3.924901 0.976445 0
M  V30 42 H 1.651431 -5.243571 1.713093 0
M  V30 43 H 0.990243 -3.529598 1.644608 0
M  V30 END ATOM
M  V30 BEGIN BOND
M  V30 1 1 1 2
M  V30 2 2 2 3
M  V30 3 1 3 4
M  V30 4 2 4 5
M  V30 5 1 5 6
M  V30 6 1 6 7
M  V30 7 1 7 8
M  V30 8 2 8 9
M  V30 9 1 9 10
M  V30 10 2 10 11
M  V30 11 1 10 12
M  V30 12 2 12 13
M  V30 13 1 13 14
M  V30 14 2 14 15
M  V30 15 1 14 16
M  V30 16 1 16 17
M  V30 17 1 16 18
M  V30 18 2 18 19
M  V30 19 1 19 20
M  V30 20 2 20 21
M  V30 21 1 21 22
M  V30 22 2 22 23
M  V30 23 1 12 24
M  V30 24 2 6 25
M  V30 25 1 25 26
M  V30 26 1 25 2
M  V30 27 1 24 8
M  V30 28 1 23 13
M  V30 29 1 23 18
M  V30 30 1 1 27
M  V30 31 1 1 28
M  V30 32 1 1 29
M  V30 33 1 3 30
M  V30 34 1 4 31
M  V30 35 1 5 32
M  V30 36 1 7 33
M  V30 37 1 17 34
M  V30 38 1 17 35
M  V30 39 1 17 36
M  V30 40 1 19 37
M  V30 41 1 20 38
M  V30 42 1 21 39
M  V30 43 1 22 40
M  V30 44 1 26 41
M  V30 45 1 26 42
M  V30 46 1 26 43
M  V30 END BOND
M  V30 END CTAB
M  END
>  <Dataset>  (974) 
ChEMBL_Kinases

>  <Ligand_Instance>  (974) 
nan

>  <PDB_ID>  (974) 
nan

>  <Standardized_SMILES>  (974) 
Cc1cccc(NC2=NC(=O)/C(=C3/C(=O)N(C)c4ccccc43)S2)c1C

>  <Name>  (974) 
nan

>  <Pocket>  (974) 
nan

>  <ATP_Site>  (974) 
nan

>  <Peripheral>  (974) 
nan

>  <Num_H_Atoms_ProtBoundConf>  (974) 
nan

>  <Num_Resolved_Atoms>  (974) 
nan

>  <Num_Not_Resolved_Atoms>  (974) 
nan

$$$$
CHEMBL1516939
     RDKit          3D

  0  0  0  0  0  0  0  0  0  0999 V3000
M  V30 BEGIN CTAB
M  V30 COUNTS 39 42 0 0 0
M  V30 BEGIN ATOM
M  V30 1 N 2.743679 -5.259843 3.948775 0
M  V30 2 C 2.842851 -4.569844 2.710764 0
M  V30 3 N 3.378908 -5.096018 1.587037 0
M  V30 4 C 3.416361 -4.330306 0.458623 0
M  V30 5 N 2.953345 -3.070301 0.375349 0
M  V30 6 C 2.408285 -2.507978 1.482212 0
M  V30 7 C 2.367319 -3.280589 2.631524 0
M  V30 8 N 1.783008 -2.498812 3.583969 0
M  V30 9 C 1.487481 -1.310730 3.028610 0
M  V30 10 N 1.865751 -1.288628 1.720954 0
M  V30 11 C 1.724903 -0.194558 0.765707 0 CFG=2
M  V30 12 O 1.143168 0.859180 1.421104 0
M  V30 13 C -0.218553 0.812216 1.266054 0 CFG=1
M  V30 14 C -0.605285 1.969480 0.416192 0
M  V30 15 O 0.388354 2.663944 0.074932 0
M  V30 16 N -1.960931 2.213867 0.061341 0
M  V30 17 C -2.305948 3.351928 -0.769558 0
M  V30 18 C -3.709232 3.845107 -0.667283 0
M  V30 19 C -3.331143 2.999143 -1.848878 0
M  V30 20 C -0.541814 -0.445562 0.485180 0 CFG=2
M  V30 21 O -0.626567 -1.579385 1.270031 0
M  V30 22 C 0.735083 -0.546967 -0.326686 0 CFG=2
M  V30 23 O 0.923189 -1.819454 -0.842345 0
M  V30 24 H 3.272287 -4.989793 4.814311 0
M  V30 25 H 2.086213 -6.086632 3.947525 0
M  V30 26 H 3.862554 -4.838376 -0.385007 0
M  V30 27 H 1.009237 -0.463756 3.537178 0
M  V30 28 H 2.711827 0.051889 0.328116 0
M  V30 29 H -0.762548 0.820523 2.240040 0
M  V30 30 H -2.731577 1.589252 0.385194 0
M  V30 31 H -1.496456 4.015278 -1.114807 0
M  V30 32 H -4.378196 3.405628 0.079843 0
M  V30 33 H -3.955139 4.923246 -0.857540 0
M  V30 34 H -3.743934 1.974281 -1.889449 0
M  V30 35 H -3.255465 3.535611 -2.806078 0
M  V30 36 H -1.429873 -0.293840 -0.158227 0
M  V30 37 H -1.526722 -1.734458 1.629498 0
M  V30 38 H 0.756204 0.240450 -1.082045 0
M  V30 39 H 1.306340 -1.705996 -1.756049 0
M  V30 END ATOM
M  V30 BEGIN BOND
M  V30 1 1 1 2
M  V30 2 2 2 3
M  V30 3 1 3 4
M  V30 4 2 4 5
M  V30 5 1 5 6
M  V30 6 2 6 7
M  V30 7 1 7 8
M  V30 8 2 8 9
M  V30 9 1 9 10
M  V30 10 1 10 11
M  V30 11 1 11 12
M  V30 12 1 12 13
M  V30 13 1 13 14
M  V30 14 2 14 15
M  V30 15 1 14 16
M  V30 16 1 16 17
M  V30 17 1 17 18
M  V30 18 1 18 19
M  V30 19 1 13 20
M  V30 20 1 20 21
M  V30 21 1 20 22
M  V30 22 1 22 23
M  V30 23 1 7 2
M  V30 24 1 22 11
M  V30 25 1 10 6
M  V30 26 1 19 17
M  V30 27 1 1 24
M  V30 28 1 1 25
M  V30 29 1 4 26
M  V30 30 1 9 27
M  V30 31 1 11 28 CFG=3
M  V30 32 1 13 29 CFG=1
M  V30 33 1 16 30
M  V30 34 1 17 31
M  V30 35 1 18 32
M  V30 36 1 18 33
M  V30 37 1 19 34
M  V30 38 1 19 35
M  V30 39 1 20 36 CFG=3
M  V30 40 1 21 37
M  V30 41 1 22 38 CFG=3
M  V30 42 1 23 39
M  V30 END BOND
M  V30 END CTAB
M  END
>  <Dataset>  (975) 
ChEMBL_Kinases

>  <Ligand_Instance>  (975) 
nan

>  <PDB_ID>  (975) 
nan

>  <Standardized_SMILES>  (975) 
Nc1ncnc2c1ncn2[C@@H]1O[C@@H](C(=O)NC2CC2)[C@H](O)[C@@H]1O

>  <Name>  (975) 
nan

>  <Pocket>  (975) 
nan

>  <ATP_Site>  (975) 
nan

>  <Peripheral>  (975) 
nan

>  <Num_H_Atoms_ProtBoundConf>  (975) 
nan

>  <Num_Resolved_Atoms>  (975) 
nan

>  <Num_Not_Resolved_Atoms>  (975) 
nan

$$$$
CHEMBL1516914
     RDKit          3D

  0  0  0  0  0  0  0  0  0  0999 V3000
M  V30 BEGIN CTAB
M  V30 COUNTS 42 46 0 0 0
M  V30 BEGIN ATOM
M  V30 1 C 0.867869 -7.859045 3.122934 0
M  V30 2 C 0.731942 -6.548260 2.427232 0
M  V30 3 C -0.462347 -5.854884 2.474493 0
M  V30 4 C -0.641771 -4.654910 1.858022 0
M  V30 5 C 0.376653 -4.064306 1.146191 0
M  V30 6 C 0.486864 -2.809035 0.423668 0
M  V30 7 N 0.936389 -2.741163 -0.840870 0
M  V30 8 N 1.058396 -1.617294 -1.532053 0
M  V30 9 C 0.734575 -0.393002 -1.021446 0
M  V30 10 S 1.030861 0.820017 -2.225668 0
M  V30 11 C 0.706811 2.487710 -1.852791 0
M  V30 12 N -0.385617 3.302016 -1.969474 0
M  V30 13 C -0.052958 4.520652 -1.517120 0
M  V30 14 C -0.736539 5.729831 -1.391300 0
M  V30 15 C -0.168497 6.882344 -0.882741 0
M  V30 16 C 1.150461 6.758904 -0.497522 0
M  V30 17 C 1.869719 5.585748 -0.601735 0
M  V30 18 C 1.264039 4.456029 -1.115814 0
M  V30 19 O 1.662293 3.226306 -1.338413 0
M  V30 20 C 0.276522 -0.460302 0.269334 0
M  V30 21 C -0.028935 0.784803 0.754805 0
M  V30 22 C -0.495724 0.932600 2.039030 0
M  V30 23 C -0.627631 -0.247735 2.780640 0
M  V30 24 C -0.314360 -1.484498 2.269573 0
M  V30 25 C 0.143279 -1.611130 1.001161 0
M  V30 26 C 1.595752 -4.750164 1.084905 0
M  V30 27 C 1.769623 -5.979151 1.719448 0
M  V30 28 H 1.949633 -8.127577 3.187074 0
M  V30 29 H 0.469197 -7.794060 4.159437 0
M  V30 30 H 0.347320 -8.650916 2.518131 0
M  V30 31 H -1.320984 -6.243387 3.013224 0
M  V30 32 H -1.549518 -4.070078 1.839885 0
M  V30 33 H -1.760543 5.718623 -1.720786 0
M  V30 34 H -0.705908 7.805296 -0.791658 0
M  V30 35 H 1.699115 7.605347 -0.082121 0
M  V30 36 H 2.903331 5.474868 -0.303893 0
M  V30 37 H 0.064900 1.694821 0.205879 0
M  V30 38 H -0.745417 1.915147 2.445978 0
M  V30 39 H -0.995121 -0.169962 3.805065 0
M  V30 40 H -0.419612 -2.359065 2.882733 0
M  V30 41 H 2.503983 -4.449528 0.577671 0
M  V30 42 H 2.676847 -6.554153 1.710605 0
M  V30 END ATOM
M  V30 BEGIN BOND
M  V30 1 1 1 2
M  V30 2 2 2 3
M  V30 3 1 3 4
M  V30 4 2 4 5
M  V30 5 1 5 6
M  V30 6 2 6 7
M  V30 7 1 7 8
M  V30 8 2 8 9
M  V30 9 1 9 10
M  V30 10 1 10 11
M  V30 11 2 11 12
M  V30 12 1 12 13
M  V30 13 2 13 14
M  V30 14 1 14 15
M  V30 15 2 15 16
M  V30 16 1 16 17
M  V30 17 2 17 18
M  V30 18 1 18 19
M  V30 19 1 9 20
M  V30 20 2 20 21
M  V30 21 1 21 22
M  V30 22 2 22 23
M  V30 23 1 23 24
M  V30 24 2 24 25
M  V30 25 1 5 26
M  V30 26 2 26 27
M  V30 27 1 27 2
M  V30 28 1 25 6
M  V30 29 1 19 11
M  V30 30 1 25 20
M  V30 31 1 18 13
M  V30 32 1 1 28
M  V30 33 1 1 29
M  V30 34 1 1 30
M  V30 35 1 3 31
M  V30 36 1 4 32
M  V30 37 1 14 33
M  V30 38 1 15 34
M  V30 39 1 16 35
M  V30 40 1 17 36
M  V30 41 1 21 37
M  V30 42 1 22 38
M  V30 43 1 23 39
M  V30 44 1 24 40
M  V30 45 1 26 41
M  V30 46 1 27 42
M  V30 END BOND
M  V30 END CTAB
M  END
>  <Dataset>  (976) 
ChEMBL_Kinases

>  <Ligand_Instance>  (976) 
nan

>  <PDB_ID>  (976) 
nan

>  <Standardized_SMILES>  (976) 
Cc1ccc(-c2nnc(Sc3nc4ccccc4o3)c3ccccc23)cc1

>  <Name>  (976) 
nan

>  <Pocket>  (976) 
nan

>  <ATP_Site>  (976) 
nan

>  <Peripheral>  (976) 
nan

>  <Num_H_Atoms_ProtBoundConf>  (976) 
nan

>  <Num_Resolved_Atoms>  (976) 
nan

>  <Num_Not_Resolved_Atoms>  (976) 
nan

$$$$
CHEMBL1516905
     RDKit          3D

  0  0  0  0  0  0  0  0  0  0999 V3000
M  V30 BEGIN CTAB
M  V30 COUNTS 44 47 0 0 0
M  V30 BEGIN ATOM
M  V30 1 C -3.433611 -7.382703 -4.554410 0
M  V30 2 C -2.460917 -6.306261 -4.250556 0
M  V30 3 N -1.979582 -5.575409 -3.375586 0
M  V30 4 C -1.050916 -4.696076 -3.627763 0
M  V30 5 C -0.514164 -4.488781 -4.873778 0
M  V30 6 C 0.498308 -3.526338 -5.135751 0
M  V30 7 C 0.953650 -2.774228 -4.086372 0
M  V30 8 C 0.435889 -2.955175 -2.814916 0
M  V30 9 N 0.849780 -2.252255 -1.790479 0
M  V30 10 C 0.492238 -2.307449 -0.657220 0
M  V30 11 N 0.888932 -1.572444 0.547796 0
M  V30 12 C 0.195516 -0.378312 0.870236 0
M  V30 13 O -0.717935 -0.076097 0.049321 0
M  V30 14 C 0.534534 0.408469 2.056293 0
M  V30 15 C 1.519067 0.118326 2.978404 0
M  V30 16 C 1.744028 0.942589 4.061925 0
M  V30 17 C 0.988088 2.092766 4.262872 0
M  V30 18 S 1.246142 3.157937 5.624561 0
M  V30 19 O -0.021380 3.848685 6.034259 0
M  V30 20 O 1.770621 2.433462 6.831272 0
M  V30 21 N 2.415363 4.389535 5.222692 0
M  V30 22 C 1.920361 5.200929 4.118855 0
M  V30 23 C 2.607075 5.266991 6.361612 0
M  V30 24 C -0.010955 2.395030 3.334742 0
M  V30 25 C -0.230872 1.565177 2.251874 0
M  V30 26 S -0.771462 -3.644387 -0.826668 0
M  V30 27 C -0.520566 -3.860046 -2.551750 0
M  V30 28 S -1.539662 -5.780634 -5.768076 0
M  V30 29 H -3.924890 -7.788633 -3.671652 0
M  V30 30 H -2.878210 -8.239142 -5.035041 0
M  V30 31 H -4.151141 -6.953017 -5.269509 0
M  V30 32 H 0.705860 -3.600856 -6.183292 0
M  V30 33 H 1.707874 -2.117284 -4.500283 0
M  V30 34 H 1.662787 -1.924716 1.148684 0
M  V30 35 H 2.086921 -0.785050 2.788933 0
M  V30 36 H 2.522250 0.686920 4.764738 0
M  V30 37 H 0.824418 5.200587 4.110199 0
M  V30 38 H 2.303132 4.699327 3.193251 0
M  V30 39 H 2.313950 6.231935 4.194794 0
M  V30 40 H 2.541090 6.350406 6.065926 0
M  V30 41 H 3.631273 5.142391 6.750977 0
M  V30 42 H 1.879361 5.043997 7.190863 0
M  V30 43 H -0.615202 3.303331 3.484603 0
M  V30 44 H -1.019157 1.835683 1.551009 0
M  V30 END ATOM
M  V30 BEGIN BOND
M  V30 1 1 1 2
M  V30 2 2 2 3
M  V30 3 1 3 4
M  V30 4 2 4 5
M  V30 5 1 5 6
M  V30 6 2 6 7
M  V30 7 1 7 8
M  V30 8 1 8 9
M  V30 9 2 9 10
M  V30 10 1 10 11
M  V30 11 1 11 12
M  V30 12 2 12 13
M  V30 13 1 12 14
M  V30 14 2 14 15
M  V30 15 1 15 16
M  V30 16 2 16 17
M  V30 17 1 17 18
M  V30 18 2 18 19
M  V30 19 2 18 20
M  V30 20 1 18 21
M  V30 21 1 21 22
M  V30 22 1 21 23
M  V30 23 1 17 24
M  V30 24 2 24 25
M  V30 25 1 10 26
M  V30 26 1 26 27
M  V30 27 1 5 28
M  V30 28 1 28 2
M  V30 29 1 27 4
M  V30 30 2 27 8
M  V30 31 1 25 14
M  V30 32 1 1 29
M  V30 33 1 1 30
M  V30 34 1 1 31
M  V30 35 1 6 32
M  V30 36 1 7 33
M  V30 37 1 11 34
M  V30 38 1 15 35
M  V30 39 1 16 36
M  V30 40 1 22 37
M  V30 41 1 22 38
M  V30 42 1 22 39
M  V30 43 1 23 40
M  V30 44 1 23 41
M  V30 45 1 23 42
M  V30 46 1 24 43
M  V30 47 1 25 44
M  V30 END BOND
M  V30 END CTAB
M  END
>  <Dataset>  (977) 
ChEMBL_Kinases

>  <Ligand_Instance>  (977) 
nan

>  <PDB_ID>  (977) 
nan

>  <Standardized_SMILES>  (977) 
Cc1nc2c(ccc3nc(NC(=O)c4ccc(S(=O)(=O)N(C)C)cc4)sc32)s1

>  <Name>  (977) 
nan

>  <Pocket>  (977) 
nan

>  <ATP_Site>  (977) 
nan

>  <Peripheral>  (977) 
nan

>  <Num_H_Atoms_ProtBoundConf>  (977) 
nan

>  <Num_Resolved_Atoms>  (977) 
nan

>  <Num_Not_Resolved_Atoms>  (977) 
nan

$$$$
CHEMBL1515221
     RDKit          3D

  0  0  0  0  0  0  0  0  0  0999 V3000
M  V30 BEGIN CTAB
M  V30 COUNTS 40 43 0 0 0
M  V30 BEGIN ATOM
M  V30 1 C -0.544158 -4.221584 0.630940 0
M  V30 2 N 0.090079 -2.934983 0.892363 0
M  V30 3 C 1.382431 -3.159593 1.517632 0
M  V30 4 C 2.101804 -1.901071 1.820488 0
M  V30 5 C 2.095874 -1.095779 2.945419 0
M  V30 6 C 2.953728 -0.028725 2.707064 0
M  V30 7 C 3.438930 -0.246551 1.436966 0
M  V30 8 O 2.928208 -1.345316 0.938218 0
M  V30 9 C -0.280537 -1.573323 0.670845 0
M  V30 10 N 0.474819 -0.749887 -0.114936 0
M  V30 11 C 0.104165 0.526501 -0.307089 0
M  V30 12 C 0.917563 1.398855 -1.148302 0
M  V30 13 C 0.544161 2.712367 -1.351424 0
M  V30 14 C 1.264047 3.593803 -2.133536 0
M  V30 15 C 2.405577 3.048750 -2.705788 0
M  V30 16 N 2.768478 1.767270 -2.506695 0
M  V30 17 C 2.063405 0.908573 -1.742256 0
M  V30 18 N -1.012001 1.005790 0.270935 0
M  V30 19 C -1.815220 0.281631 1.054439 0
M  V30 20 C -2.951411 0.814662 1.627313 0
M  V30 21 C -3.747558 0.023437 2.429168 0
M  V30 22 C -3.385551 -1.297818 2.642501 0
M  V30 23 C -2.243282 -1.818693 2.061401 0
M  V30 24 C -1.426478 -1.048054 1.252875 0
M  V30 25 H -0.728056 -4.771479 1.565117 0
M  V30 26 H -1.449808 -4.026561 0.026095 0
M  V30 27 H 0.129223 -4.864717 0.017607 0
M  V30 28 H 1.984655 -3.817215 0.862829 0
M  V30 29 H 1.184162 -3.736832 2.448177 0
M  V30 30 H 1.485167 -1.358490 3.801972 0
M  V30 31 H 3.125495 0.747204 3.436526 0
M  V30 32 H 4.149102 0.442830 0.971522 0
M  V30 33 H -0.372239 3.033293 -0.851923 0
M  V30 34 H 0.953525 4.619014 -2.279375 0
M  V30 35 H 3.009905 3.716229 -3.337444 0
M  V30 36 H 2.404248 -0.107864 -1.619606 0
M  V30 37 H -3.134666 1.853704 1.392050 0
M  V30 38 H -4.630737 0.503617 2.851834 0
M  V30 39 H -4.037096 -1.887844 3.278953 0
M  V30 40 H -1.996475 -2.853596 2.252952 0
M  V30 END ATOM
M  V30 BEGIN BOND
M  V30 1 1 1 2
M  V30 2 1 2 3
M  V30 3 1 3 4
M  V30 4 2 4 5
M  V30 5 1 5 6
M  V30 6 2 6 7
M  V30 7 1 7 8
M  V30 8 1 2 9
M  V30 9 2 9 10
M  V30 10 1 10 11
M  V30 11 1 11 12
M  V30 12 2 12 13
M  V30 13 1 13 14
M  V30 14 2 14 15
M  V30 15 1 15 16
M  V30 16 2 16 17
M  V30 17 2 11 18
M  V30 18 1 18 19
M  V30 19 2 19 20
M  V30 20 1 20 21
M  V30 21 2 21 22
M  V30 22 1 22 23
M  V30 23 2 23 24
M  V30 24 1 8 4
M  V30 25 1 24 9
M  V30 26 1 17 12
M  V30 27 1 24 19
M  V30 28 1 1 25
M  V30 29 1 1 26
M  V30 30 1 1 27
M  V30 31 1 3 28
M  V30 32 1 3 29
M  V30 33 1 5 30
M  V30 34 1 6 31
M  V30 35 1 7 32
M  V30 36 1 13 33
M  V30 37 1 14 34
M  V30 38 1 15 35
M  V30 39 1 17 36
M  V30 40 1 20 37
M  V30 41 1 21 38
M  V30 42 1 22 39
M  V30 43 1 23 40
M  V30 END BOND
M  V30 END CTAB
M  END
>  <Dataset>  (978) 
ChEMBL_Kinases

>  <Ligand_Instance>  (978) 
nan

>  <PDB_ID>  (978) 
nan

>  <Standardized_SMILES>  (978) 
CN(Cc1ccco1)c1nc(-c2cccnc2)nc2ccccc12

>  <Name>  (978) 
nan

>  <Pocket>  (978) 
nan

>  <ATP_Site>  (978) 
nan

>  <Peripheral>  (978) 
nan

>  <Num_H_Atoms_ProtBoundConf>  (978) 
nan

>  <Num_Resolved_Atoms>  (978) 
nan

>  <Num_Not_Resolved_Atoms>  (978) 
nan

$$$$
CHEMBL1515246
     RDKit          3D

  0  0  0  0  0  0  0  0  0  0999 V3000
M  V30 BEGIN CTAB
M  V30 COUNTS 48 51 0 0 0
M  V30 BEGIN ATOM
M  V30 1 C -0.125675 -4.696483 1.700237 0
M  V30 2 O 0.262251 -3.590238 0.951274 0
M  V30 3 C 1.565381 -3.151794 0.794807 0
M  V30 4 C 2.723659 -3.712604 1.343022 0
M  V30 5 C 3.948296 -3.133624 1.075381 0
M  V30 6 C 4.054570 -2.007980 0.274920 0
M  V30 7 C 2.949821 -1.403992 -0.297347 0
M  V30 8 C 2.944299 -0.224436 -1.161653 0
M  V30 9 N 2.972145 1.037325 -0.502857 0
M  V30 10 C 4.134439 1.661926 -0.217910 0
M  V30 11 O 5.198029 1.082179 -0.556355 0
M  V30 12 C 4.202909 2.883873 0.414195 0
M  V30 13 N 3.032083 3.483176 0.765093 0
M  V30 14 C 1.851013 2.894876 0.499292 0
M  V30 15 C 0.700354 3.547098 0.878224 0
M  V30 16 N -0.476385 2.937915 0.603369 0
M  V30 17 C -0.553417 1.756989 -0.006440 0
M  V30 18 N -1.715871 1.016722 -0.353603 0
M  V30 19 C -2.559946 0.569774 0.719814 0
M  V30 20 C -2.318961 0.957487 2.022547 0
M  V30 21 C -3.096973 0.553701 3.100264 0
M  V30 22 C -4.165280 -0.272737 2.887120 0
M  V30 23 C -4.427760 -0.675800 1.593975 0
M  V30 24 O -5.526235 -1.513091 1.465873 0
M  V30 25 C -5.974557 -2.043810 0.246734 0
M  V30 26 C -3.650027 -0.267756 0.543961 0
M  V30 27 N 0.596580 1.160894 -0.356507 0
M  V30 28 C 1.814296 1.651367 -0.145096 0
M  V30 29 C 1.748092 -2.025656 0.003132 0
M  V30 30 H -0.091800 -5.629229 1.090132 0
M  V30 31 H -1.211658 -4.605162 1.994034 0
M  V30 32 H 0.443402 -4.820140 2.649582 0
M  V30 33 H 2.553799 -4.588690 1.954516 0
M  V30 34 H 4.818175 -3.600307 1.521733 0
M  V30 35 H 5.017759 -1.564921 0.071267 0
M  V30 36 H 3.820102 -0.304890 -1.863748 0
M  V30 37 H 2.057008 -0.267428 -1.819849 0
M  V30 38 H 5.128298 3.395566 0.648039 0
M  V30 39 H 0.648725 4.488385 1.368710 0
M  V30 40 H -2.019666 0.761184 -1.334062 0
M  V30 41 H -1.500807 1.605115 2.280504 0
M  V30 42 H -2.877637 0.880618 4.108670 0
M  V30 43 H -4.773154 -0.587364 3.727003 0
M  V30 44 H -7.017557 -2.438348 0.369703 0
M  V30 45 H -6.008427 -1.312454 -0.574547 0
M  V30 46 H -5.308358 -2.872710 -0.084067 0
M  V30 47 H -3.885056 -0.603477 -0.455150 0
M  V30 48 H 0.843746 -1.578261 -0.443209 0
M  V30 END ATOM
M  V30 BEGIN BOND
M  V30 1 1 1 2
M  V30 2 1 2 3
M  V30 3 2 3 4
M  V30 4 1 4 5
M  V30 5 2 5 6
M  V30 6 1 6 7
M  V30 7 1 7 8
M  V30 8 1 8 9
M  V30 9 1 9 10
M  V30 10 2 10 11
M  V30 11 1 10 12
M  V30 12 2 12 13
M  V30 13 1 13 14
M  V30 14 2 14 15
M  V30 15 1 15 16
M  V30 16 2 16 17
M  V30 17 1 17 18
M  V30 18 1 18 19
M  V30 19 2 19 20
M  V30 20 1 20 21
M  V30 21 2 21 22
M  V30 22 1 22 23
M  V30 23 1 23 24
M  V30 24 1 24 25
M  V30 25 2 23 26
M  V30 26 1 17 27
M  V30 27 2 27 28
M  V30 28 2 7 29
M  V30 29 1 29 3
M  V30 30 1 28 9
M  V30 31 1 28 14
M  V30 32 1 26 19
M  V30 33 1 1 30
M  V30 34 1 1 31
M  V30 35 1 1 32
M  V30 36 1 4 33
M  V30 37 1 5 34
M  V30 38 1 6 35
M  V30 39 1 8 36
M  V30 40 1 8 37
M  V30 41 1 12 38
M  V30 42 1 15 39
M  V30 43 1 18 40
M  V30 44 1 20 41
M  V30 45 1 21 42
M  V30 46 1 22 43
M  V30 47 1 25 44
M  V30 48 1 25 45
M  V30 49 1 25 46
M  V30 50 1 26 47
M  V30 51 1 29 48
M  V30 END BOND
M  V30 END CTAB
M  END
>  <Dataset>  (979) 
ChEMBL_Kinases

>  <Ligand_Instance>  (979) 
nan

>  <PDB_ID>  (979) 
nan

>  <Standardized_SMILES>  (979) 
COc1cccc(Cn2c(=O)cnc3cnc(Nc4cccc(OC)c4)nc32)c1

>  <Name>  (979) 
nan

>  <Pocket>  (979) 
nan

>  <ATP_Site>  (979) 
nan

>  <Peripheral>  (979) 
nan

>  <Num_H_Atoms_ProtBoundConf>  (979) 
nan

>  <Num_Resolved_Atoms>  (979) 
nan

>  <Num_Not_Resolved_Atoms>  (979) 
nan

$$$$
CHEMBL1515324
     RDKit          3D

  0  0  0  0  0  0  0  0  0  0999 V3000
M  V30 BEGIN CTAB
M  V30 COUNTS 58 61 0 0 0
M  V30 BEGIN ATOM
M  V30 1 C 1.436586 -3.087770 5.114812 0
M  V30 2 S 2.168224 -3.724322 3.601419 0
M  V30 3 O 3.525834 -4.243311 3.954696 0
M  V30 4 O 1.353149 -4.841126 3.032254 0
M  V30 5 N 2.337822 -2.412439 2.519624 0
M  V30 6 C 1.078406 -1.804804 2.169708 0
M  V30 7 C 1.275600 -0.569916 1.356423 0
M  V30 8 C 1.948472 -0.922267 0.071536 0
M  V30 9 C 2.975043 0.113660 -0.226014 0
M  V30 10 C 2.296612 1.464617 -0.336654 0
M  V30 11 C 1.107597 1.401333 -1.268405 0
M  V30 12 N 0.196092 0.347300 -0.886175 0
M  V30 13 C -1.141612 0.528489 -1.199432 0
M  V30 14 C -1.928669 1.452836 -0.332085 0
M  V30 15 C -1.646470 2.592968 0.346434 0
M  V30 16 C -2.521706 3.338392 1.092989 0
M  V30 17 C -3.832965 2.936556 1.201072 0
M  V30 18 C -4.232984 1.790330 0.552981 0
M  V30 19 C -3.284713 1.109504 -0.171888 0
M  V30 20 C -1.917794 -0.743654 -1.406289 0
M  V30 21 C -1.994409 -1.773312 -0.487878 0
M  V30 22 C -2.693624 -2.932807 -0.683647 0
M  V30 23 C -3.376222 -3.108912 -1.869014 0
M  V30 24 C -3.354984 -2.133135 -2.841422 0
M  V30 25 C -2.629911 -0.994559 -2.572535 0
M  V30 26 C 0.886703 -0.863030 -1.049525 0
M  V30 27 C 2.530066 -2.316154 0.073649 0
M  V30 28 C 3.161853 -2.708047 1.383548 0
M  V30 29 H 1.668214 -3.737033 5.981353 0
M  V30 30 H 1.838987 -2.087781 5.326395 0
M  V30 31 H 0.330845 -3.103886 5.021753 0
M  V30 32 H 0.419906 -2.521705 1.636603 0
M  V30 33 H 0.560582 -1.534932 3.112756 0
M  V30 34 H 1.889728 0.160318 1.926640 0
M  V30 35 H 0.256303 -0.146472 1.163771 0
M  V30 36 H 3.637813 0.192715 0.680680 0
M  V30 37 H 3.623245 -0.135263 -1.074726 0
M  V30 38 H 2.026944 1.823837 0.654239 0
M  V30 39 H 3.033059 2.151431 -0.801504 0
M  V30 40 H 1.497981 1.086274 -2.290134 0
M  V30 41 H 0.705313 2.382559 -1.420707 0
M  V30 42 H -1.195778 1.052920 -2.205375 0
M  V30 43 H -0.625486 2.917352 0.287435 0
M  V30 44 H -2.141301 4.226083 1.574630 0
M  V30 45 H -4.469812 3.559420 1.797827 0
M  V30 46 H -5.251870 1.482092 0.639862 0
M  V30 47 H -3.701455 0.208377 -0.652717 0
M  V30 48 H -1.476093 -1.658751 0.455091 0
M  V30 49 H -2.702640 -3.699835 0.096196 0
M  V30 50 H -3.919469 -4.017781 -2.012784 0
M  V30 51 H -3.882373 -2.261272 -3.765107 0
M  V30 52 H -2.624144 -0.235823 -3.350090 0
M  V30 53 H 0.376692 -1.810346 -0.994820 0
M  V30 54 H 1.523901 -0.775396 -1.982254 0
M  V30 55 H 1.799314 -3.082689 -0.256272 0
M  V30 56 H 3.340908 -2.328553 -0.688627 0
M  V30 57 H 3.330656 -3.804004 1.346915 0
M  V30 58 H 4.152642 -2.236130 1.540054 0
M  V30 END ATOM
M  V30 BEGIN BOND
M  V30 1 1 1 2
M  V30 2 2 2 3
M  V30 3 2 2 4
M  V30 4 1 2 5
M  V30 5 1 5 6
M  V30 6 1 6 7
M  V30 7 1 7 8
M  V30 8 1 8 9
M  V30 9 1 9 10
M  V30 10 1 10 11
M  V30 11 1 11 12
M  V30 12 1 12 13
M  V30 13 1 13 14
M  V30 14 2 14 15
M  V30 15 1 15 16
M  V30 16 2 16 17
M  V30 17 1 17 18
M  V30 18 2 18 19
M  V30 19 1 13 20
M  V30 20 2 20 21
M  V30 21 1 21 22
M  V30 22 2 22 23
M  V30 23 1 23 24
M  V30 24 2 24 25
M  V30 25 1 12 26
M  V30 26 1 8 27
M  V30 27 1 27 28
M  V30 28 1 28 5
M  V30 29 1 26 8
M  V30 30 1 19 14
M  V30 31 1 25 20
M  V30 32 1 1 29
M  V30 33 1 1 30
M  V30 34 1 1 31
M  V30 35 1 6 32
M  V30 36 1 6 33
M  V30 37 1 7 34
M  V30 38 1 7 35
M  V30 39 1 9 36
M  V30 40 1 9 37
M  V30 41 1 10 38
M  V30 42 1 10 39
M  V30 43 1 11 40
M  V30 44 1 11 41
M  V30 45 1 13 42
M  V30 46 1 15 43
M  V30 47 1 16 44
M  V30 48 1 17 45
M  V30 49 1 18 46
M  V30 50 1 19 47
M  V30 51 1 21 48
M  V30 52 1 22 49
M  V30 53 1 23 50
M  V30 54 1 24 51
M  V30 55 1 25 52
M  V30 56 1 26 53
M  V30 57 1 26 54
M  V30 58 1 27 55
M  V30 59 1 27 56
M  V30 60 1 28 57
M  V30 61 1 28 58
M  V30 END BOND
M  V30 END CTAB
M  END
>  <Dataset>  (980) 
ChEMBL_Kinases

>  <Ligand_Instance>  (980) 
nan

>  <PDB_ID>  (980) 
nan

>  <Standardized_SMILES>  (980) 
CS(=O)(=O)N1CCC2(CCCN(C(c3ccccc3)c3ccccc3)C2)CC1

>  <Name>  (980) 
nan

>  <Pocket>  (980) 
nan

>  <ATP_Site>  (980) 
nan

>  <Peripheral>  (980) 
nan

>  <Num_H_Atoms_ProtBoundConf>  (980) 
nan

>  <Num_Resolved_Atoms>  (980) 
nan

>  <Num_Not_Resolved_Atoms>  (980) 
nan

$$$$
CHEMBL1515366
     RDKit          3D

  0  0  0  0  0  0  0  0  0  0999 V3000
M  V30 BEGIN CTAB
M  V30 COUNTS 44 46 0 0 0
M  V30 BEGIN ATOM
M  V30 1 C 4.209538 -3.232936 2.123227 0
M  V30 2 C 3.724371 -2.367534 1.039208 0
M  V30 3 O 2.901543 -1.444924 1.311654 0
M  V30 4 N 4.056493 -2.417691 -0.332089 0
M  V30 5 C 3.744350 -1.740926 -1.563194 0
M  V30 6 C 2.304155 -1.828466 -1.991240 0
M  V30 7 N 1.311003 -1.279916 -1.158525 0
M  V30 8 C 0.329904 -0.737167 -0.335753 0
M  V30 9 N 0.093242 0.515603 0.058320 0
M  V30 10 C -0.905881 0.854079 0.866299 0
M  V30 11 C -0.963677 2.281242 1.127781 0
M  V30 12 C -0.172803 3.186211 0.458766 0
M  V30 13 C -0.277519 4.544913 0.780968 0
M  V30 14 C -1.144546 4.994311 1.743670 0
M  V30 15 C -1.914425 4.031301 2.382620 0
M  V30 16 C -1.850030 2.656904 2.098377 0
M  V30 17 C -2.767601 1.909694 2.943322 0
M  V30 18 N -1.671495 -0.134767 1.268934 0
M  V30 19 C -1.576404 -1.434778 0.971136 0
M  V30 20 C -2.499201 -2.270585 1.518082 0
M  V30 21 C -2.352902 -3.613665 1.174792 0
M  V30 22 C -1.339049 -4.019118 0.344508 0
M  V30 23 C -0.458842 -3.101124 -0.154859 0
M  V30 24 C -0.527426 -1.730263 0.133589 0
M  V30 25 H 3.392555 -3.238261 2.901653 0
M  V30 26 H 4.319810 -4.303498 1.790019 0
M  V30 27 H 5.133799 -2.877956 2.594667 0
M  V30 28 H 4.758817 -3.227366 -0.415429 0
M  V30 29 H 4.042779 -0.661968 -1.445718 0
M  V30 30 H 4.389491 -2.162998 -2.353606 0
M  V30 31 H 2.149393 -2.954420 -2.141759 0
M  V30 32 H 2.294025 -1.489395 -3.071566 0
M  V30 33 H 1.844141 -0.363844 -1.353903 0
M  V30 34 H 0.512495 2.846758 -0.297452 0
M  V30 35 H 0.377053 5.223043 0.214547 0
M  V30 36 H -1.207328 6.045316 1.970097 0
M  V30 37 H -2.574161 4.490664 3.138508 0
M  V30 38 H -3.757632 2.459591 3.003706 0
M  V30 39 H -2.345722 1.835674 3.980430 0
M  V30 40 H -3.010881 0.907537 2.590636 0
M  V30 41 H -3.288577 -1.953961 2.163838 0
M  V30 42 H -3.008530 -4.377829 1.535132 0
M  V30 43 H -1.200189 -5.054248 0.061483 0
M  V30 44 H 0.323750 -3.434056 -0.797287 0
M  V30 END ATOM
M  V30 BEGIN BOND
M  V30 1 1 1 2
M  V30 2 2 2 3
M  V30 3 1 2 4
M  V30 4 1 4 5
M  V30 5 1 5 6
M  V30 6 1 6 7
M  V30 7 1 7 8
M  V30 8 2 8 9
M  V30 9 1 9 10
M  V30 10 1 10 11
M  V30 11 2 11 12
M  V30 12 1 12 13
M  V30 13 2 13 14
M  V30 14 1 14 15
M  V30 15 2 15 16
M  V30 16 1 16 17
M  V30 17 2 10 18
M  V30 18 1 18 19
M  V30 19 2 19 20
M  V30 20 1 20 21
M  V30 21 2 21 22
M  V30 22 1 22 23
M  V30 23 2 23 24
M  V30 24 1 24 8
M  V30 25 1 16 11
M  V30 26 1 24 19
M  V30 27 1 1 25
M  V30 28 1 1 26
M  V30 29 1 1 27
M  V30 30 1 4 28
M  V30 31 1 5 29
M  V30 32 1 5 30
M  V30 33 1 6 31
M  V30 34 1 6 32
M  V30 35 1 7 33
M  V30 36 1 12 34
M  V30 37 1 13 35
M  V30 38 1 14 36
M  V30 39 1 15 37
M  V30 40 1 17 38
M  V30 41 1 17 39
M  V30 42 1 17 40
M  V30 43 1 20 41
M  V30 44 1 21 42
M  V30 45 1 22 43
M  V30 46 1 23 44
M  V30 END BOND
M  V30 END CTAB
M  END
>  <Dataset>  (981) 
ChEMBL_Kinases

>  <Ligand_Instance>  (981) 
nan

>  <PDB_ID>  (981) 
nan

>  <Standardized_SMILES>  (981) 
CC(=O)NCCNc1nc(-c2ccccc2C)nc2ccccc12

>  <Name>  (981) 
nan

>  <Pocket>  (981) 
nan

>  <ATP_Site>  (981) 
nan

>  <Peripheral>  (981) 
nan

>  <Num_H_Atoms_ProtBoundConf>  (981) 
nan

>  <Num_Resolved_Atoms>  (981) 
nan

>  <Num_Not_Resolved_Atoms>  (981) 
nan

$$$$
CHEMBL1515706
     RDKit          3D

  0  0  0  0  0  0  0  0  0  0999 V3000
M  V30 BEGIN CTAB
M  V30 COUNTS 75 78 0 0 0
M  V30 BEGIN ATOM
M  V30 1 C 3.356779 -0.530769 -1.590325 0
M  V30 2 C 2.691766 0.719630 -1.101861 0
M  V30 3 C 2.434108 1.850486 -1.980078 0
M  V30 4 C 1.453757 1.736567 -3.079544 0
M  V30 5 N 0.097111 1.454780 -2.684014 0
M  V30 6 C -0.448066 2.574616 -1.952015 0
M  V30 7 C -1.837863 2.613767 -1.574575 0
M  V30 8 C -2.530113 1.374782 -1.180169 0
M  V30 9 C -3.038273 0.655289 -2.435473 0
M  V30 10 C -1.904978 -0.176406 -2.916552 0
M  V30 11 N -2.238707 -1.421791 -3.298176 0
M  V30 12 C -1.353571 -2.321868 -3.767075 0
M  V30 13 C -1.917402 -3.645231 -4.136641 0
M  V30 14 C -0.034397 -1.926421 -3.853698 0
M  V30 15 C 0.914230 -2.945600 -4.373109 0
M  V30 16 C 0.312465 -0.652102 -3.463747 0
M  V30 17 C -0.603175 0.257187 -2.986194 0
M  V30 18 N 2.353951 0.791015 0.126300 0
M  V30 19 O 2.461891 -0.041488 1.145649 0
M  V30 20 C 2.578998 -1.373401 1.380093 0 CFG=1
M  V30 21 C 3.875689 -1.754694 2.099505 0
M  V30 22 C 1.464320 -1.821448 2.343291 0
M  V30 23 N 0.182545 -1.580197 1.764103 0
M  V30 24 C -0.249328 -2.355422 0.599825 0
M  V30 25 C -1.644866 -2.884377 0.839916 0
M  V30 26 C -2.661906 -1.797876 1.010050 0
M  V30 27 C -2.089647 -0.736600 1.877381 0
M  V30 28 N -2.972669 0.172752 2.328434 0
M  V30 29 C -2.526183 1.179226 3.125633 0
M  V30 30 C -3.555998 2.168023 3.598540 0
M  V30 31 C -1.208382 1.327958 3.505289 0
M  V30 32 C -0.780699 2.432515 4.366438 0
M  V30 33 C -0.284945 0.394775 3.045763 0
M  V30 34 C -0.750262 -0.621212 2.237961 0
M  V30 35 H 2.586749 -1.288084 -1.722753 0
M  V30 36 H 3.956052 -0.333859 -2.499330 0
M  V30 37 H 4.104175 -0.931014 -0.866400 0
M  V30 38 H 2.202516 2.770090 -1.349609 0
M  V30 39 H 3.462357 2.174580 -2.355663 0
M  V30 40 H 1.385314 2.835443 -3.455587 0
M  V30 41 H 1.794388 1.323303 -4.038905 0
M  V30 42 H 0.207965 2.653131 -1.032796 0
M  V30 43 H -0.154699 3.498344 -2.533494 0
M  V30 44 H -2.446020 3.104063 -2.388954 0
M  V30 45 H -1.967121 3.343411 -0.718145 0
M  V30 46 H -1.910416 0.631020 -0.656734 0
M  V30 47 H -3.382770 1.617379 -0.514721 0
M  V30 48 H -3.910044 0.072138 -2.112345 0
M  V30 49 H -3.366996 1.390328 -3.197908 0
M  V30 50 H -2.386948 -3.647464 -5.128155 0
M  V30 51 H -1.083991 -4.393028 -4.109885 0
M  V30 52 H -2.608391 -3.967880 -3.313502 0
M  V30 53 H 1.936134 -2.522444 -4.381110 0
M  V30 54 H 0.677358 -3.283330 -5.401630 0
M  V30 55 H 0.896524 -3.800057 -3.648573 0
M  V30 56 H 1.358231 -0.442058 -3.574740 0
M  V30 57 H 2.554967 -2.061866 0.495299 0
M  V30 58 H 4.737555 -1.738285 1.400948 0
M  V30 59 H 4.044484 -1.096132 2.978769 0
M  V30 60 H 3.747545 -2.802503 2.434932 0
M  V30 61 H 1.607037 -1.422358 3.347483 0
M  V30 62 H 1.605592 -2.936826 2.437623 0
M  V30 63 H 0.404849 -3.247449 0.554196 0
M  V30 64 H -0.148092 -1.820844 -0.344322 0
M  V30 65 H -1.894564 -3.601031 0.031242 0
M  V30 66 H -1.610338 -3.502472 1.781746 0
M  V30 67 H -2.957783 -1.424142 0.004838 0
M  V30 68 H -3.538272 -2.227011 1.543433 0
M  V30 69 H -3.287250 2.476263 4.613510 0
M  V30 70 H -4.556035 1.723132 3.630303 0
M  V30 71 H -3.482195 3.052019 2.921710 0
M  V30 72 H 0.283205 2.280165 4.679068 0
M  V30 73 H -0.896871 3.442326 3.890180 0
M  V30 74 H -1.354646 2.444945 5.309866 0
M  V30 75 H 0.773308 0.434763 3.295718 0
M  V30 END ATOM
M  V30 BEGIN BOND
M  V30 1 1 1 2
M  V30 2 1 2 3
M  V30 3 1 3 4
M  V30 4 1 4 5
M  V30 5 1 5 6
M  V30 6 1 6 7
M  V30 7 1 7 8
M  V30 8 1 8 9
M  V30 9 1 9 10
M  V30 10 2 10 11
M  V30 11 1 11 12
M  V30 12 1 12 13
M  V30 13 2 12 14
M  V30 14 1 14 15
M  V30 15 1 14 16
M  V30 16 2 16 17
M  V30 17 2 2 18
M  V30 18 1 18 19
M  V30 19 1 19 20
M  V30 20 1 20 21
M  V30 21 1 20 22
M  V30 22 1 22 23
M  V30 23 1 23 24
M  V30 24 1 24 25
M  V30 25 1 25 26
M  V30 26 1 26 27
M  V30 27 2 27 28
M  V30 28 1 28 29
M  V30 29 1 29 30
M  V30 30 2 29 31
M  V30 31 1 31 32
M  V30 32 1 31 33
M  V30 33 2 33 34
M  V30 34 1 17 5
M  V30 35 1 34 23
M  V30 36 1 17 10
M  V30 37 1 34 27
M  V30 38 1 1 35
M  V30 39 1 1 36
M  V30 40 1 1 37
M  V30 41 1 3 38
M  V30 42 1 3 39
M  V30 43 1 4 40
M  V30 44 1 4 41
M  V30 45 1 6 42
M  V30 46 1 6 43
M  V30 47 1 7 44
M  V30 48 1 7 45
M  V30 49 1 8 46
M  V30 50 1 8 47
M  V30 51 1 9 48
M  V30 52 1 9 49
M  V30 53 1 13 50
M  V30 54 1 13 51
M  V30 55 1 13 52
M  V30 56 1 15 53
M  V30 57 1 15 54
M  V30 58 1 15 55
M  V30 59 1 16 56
M  V30 60 1 20 57 CFG=3
M  V30 61 1 21 58
M  V30 62 1 21 59
M  V30 63 1 21 60
M  V30 64 1 22 61
M  V30 65 1 22 62
M  V30 66 1 24 63
M  V30 67 1 24 64
M  V30 68 1 25 65
M  V30 69 1 25 66
M  V30 70 1 26 67
M  V30 71 1 26 68
M  V30 72 1 30 69
M  V30 73 1 30 70
M  V30 74 1 30 71
M  V30 75 1 32 72
M  V30 76 1 32 73
M  V30 77 1 32 74
M  V30 78 1 33 75
M  V30 END BOND
M  V30 END CTAB
M  END
>  <Dataset>  (982) 
ChEMBL_Kinases

>  <Ligand_Instance>  (982) 
nan

>  <PDB_ID>  (982) 
nan

>  <Standardized_SMILES>  (982) 
C/C(CCN1CCCCc2nc(C)c(C)cc21)=N\O[C@@H](C)CN1CCCc2nc(C)c(C)cc21

>  <Name>  (982) 
nan

>  <Pocket>  (982) 
nan

>  <ATP_Site>  (982) 
nan

>  <Peripheral>  (982) 
nan

>  <Num_H_Atoms_ProtBoundConf>  (982) 
nan

>  <Num_Resolved_Atoms>  (982) 
nan

>  <Num_Not_Resolved_Atoms>  (982) 
nan

$$$$
CHEMBL1515918
     RDKit          3D

  0  0  0  0  0  0  0  0  0  0999 V3000
M  V30 BEGIN CTAB
M  V30 COUNTS 35 37 0 0 0
M  V30 BEGIN ATOM
M  V30 1 C -0.702847 -1.559323 5.226065 0
M  V30 2 N -0.536868 -1.203668 3.875679 0
M  V30 3 C -0.370174 -0.848078 2.524805 0
M  V30 4 N 0.685266 -0.936313 1.701172 0
M  V30 5 C 0.680991 -0.563686 0.430530 0
M  V30 6 C 1.909133 -0.734881 -0.329760 0
M  V30 7 C 3.005106 -1.298752 0.272072 0
M  V30 8 C 4.162198 -1.442048 -0.494455 0
M  V30 9 C 4.146493 -1.009395 -1.819568 0
M  V30 10 C 3.005069 -0.438879 -2.394959 0
M  V30 11 C 1.851173 -0.295089 -1.632959 0
M  V30 12 O 0.690282 0.269900 -2.167748 0
M  V30 13 C 0.724577 0.694470 -3.520373 0
M  V30 14 N -0.466082 -0.069743 -0.034641 0
M  V30 15 C -1.596547 0.078315 0.664660 0
M  V30 16 C -2.682852 0.609962 0.008826 0
M  V30 17 C -3.830852 0.750312 0.759240 0
M  V30 18 C -3.893873 0.376776 2.108443 0
M  V30 19 C -2.737798 -0.140440 2.638801 0
M  V30 20 C -1.543057 -0.323791 1.982930 0
M  V30 21 H -0.406538 -2.618910 5.491878 0
M  V30 22 H -1.840223 -1.627767 5.408899 0
M  V30 23 H -0.288194 -0.844295 5.982955 0
M  V30 24 H 0.486494 -1.505958 4.026877 0
M  V30 25 H 3.036294 -1.640563 1.296110 0
M  V30 26 H 5.100663 -1.876101 -0.132280 0
M  V30 27 H 4.998545 -1.081288 -2.488345 0
M  V30 28 H 3.025317 -0.107895 -3.444592 0
M  V30 29 H 1.499121 1.511622 -3.607059 0
M  V30 30 H -0.286706 1.045627 -3.810427 0
M  V30 31 H 1.034836 -0.167685 -4.155016 0
M  V30 32 H -2.629993 0.897158 -1.032045 0
M  V30 33 H -4.738347 1.162515 0.320052 0
M  V30 34 H -4.790903 0.485214 2.698832 0
M  V30 35 H -2.805542 -0.418780 3.674690 0
M  V30 END ATOM
M  V30 BEGIN BOND
M  V30 1 1 1 2
M  V30 2 1 2 3
M  V30 3 2 3 4
M  V30 4 1 4 5
M  V30 5 1 5 6
M  V30 6 2 6 7
M  V30 7 1 7 8
M  V30 8 2 8 9
M  V30 9 1 9 10
M  V30 10 2 10 11
M  V30 11 1 11 12
M  V30 12 1 12 13
M  V30 13 2 5 14
M  V30 14 1 14 15
M  V30 15 2 15 16
M  V30 16 1 16 17
M  V30 17 2 17 18
M  V30 18 1 18 19
M  V30 19 2 19 20
M  V30 20 1 20 3
M  V30 21 1 11 6
M  V30 22 1 20 15
M  V30 23 1 1 21
M  V30 24 1 1 22
M  V30 25 1 1 23
M  V30 26 1 2 24
M  V30 27 1 7 25
M  V30 28 1 8 26
M  V30 29 1 9 27
M  V30 30 1 10 28
M  V30 31 1 13 29
M  V30 32 1 13 30
M  V30 33 1 13 31
M  V30 34 1 16 32
M  V30 35 1 17 33
M  V30 36 1 18 34
M  V30 37 1 19 35
M  V30 END BOND
M  V30 END CTAB
M  END
>  <Dataset>  (983) 
ChEMBL_Kinases

>  <Ligand_Instance>  (983) 
nan

>  <PDB_ID>  (983) 
nan

>  <Standardized_SMILES>  (983) 
CNc1nc(-c2ccccc2OC)nc2ccccc12

>  <Name>  (983) 
nan

>  <Pocket>  (983) 
nan

>  <ATP_Site>  (983) 
nan

>  <Peripheral>  (983) 
nan

>  <Num_H_Atoms_ProtBoundConf>  (983) 
nan

>  <Num_Resolved_Atoms>  (983) 
nan

>  <Num_Not_Resolved_Atoms>  (983) 
nan

$$$$
CHEMBL1515956
     RDKit          3D

  0  0  0  0  0  0  0  0  0  0999 V3000
M  V30 BEGIN CTAB
M  V30 COUNTS 59 62 0 0 0
M  V30 BEGIN ATOM
M  V30 1 C 0.435613 -4.277782 -1.206576 0
M  V30 2 C 1.892043 -4.579880 -1.202702 0
M  V30 3 O 2.726581 -3.499096 -0.842373 0
M  V30 4 C 2.706130 -2.818674 0.348652 0
M  V30 5 O 1.761770 -3.458624 0.927108 0
M  V30 6 N 3.518565 -1.707835 0.803496 0
M  V30 7 N 3.113154 -1.371300 2.094425 0
M  V30 8 C 2.603954 -0.230850 2.259696 0
M  V30 9 C 2.196653 0.038107 3.694853 0
M  V30 10 C 0.698926 0.257592 3.798949 0 CFG=1
M  V30 11 O 0.402706 1.557244 4.205876 0
M  V30 12 C 0.150939 0.122482 2.370306 0 CFG=1
M  V30 13 O -1.208182 0.132441 2.331983 0
M  V30 14 C 0.827397 1.223962 1.579633 0 CFG=2
M  V30 15 C 0.217869 1.475554 0.252565 0 CFG=2
M  V30 16 C -1.226220 1.597266 0.174284 0
M  V30 17 O -2.025086 2.199661 0.936186 0
M  V30 18 N -1.758615 0.899984 -0.975551 0
M  V30 19 C -3.038303 0.606611 -1.565799 0
M  V30 20 C -3.657054 -0.689336 -1.126783 0 CFG=2
M  V30 21 C -3.942368 -0.811088 0.325106 0
M  V30 22 C -3.355569 -2.149161 0.739311 0
M  V30 23 C -3.120261 -2.789878 -0.635927 0
M  V30 24 O -2.774925 -1.721358 -1.464661 0
M  V30 25 C -0.553789 0.409860 -1.619582 0
M  V30 26 O -0.278131 0.165288 -2.843195 0
M  V30 27 C 0.467313 0.192548 -0.555755 0 CFG=1
M  V30 28 C 1.891663 0.357429 -1.037897 0
M  V30 29 C 2.771907 0.977247 0.018410 0
M  V30 30 C 2.307607 0.894353 1.398029 0 CFG=2
M  V30 31 H -0.039208 -4.968241 -0.450045 0
M  V30 32 H 0.170639 -3.246700 -0.906214 0
M  V30 33 H -0.025632 -4.563659 -2.182716 0
M  V30 34 H 2.206551 -4.884647 -2.232966 0
M  V30 35 H 2.179645 -5.436734 -0.558454 0
M  V30 36 H 4.160534 -1.541701 -0.033779 0
M  V30 37 H 2.690406 1.010711 3.971531 0
M  V30 38 H 2.576328 -0.703745 4.385698 0
M  V30 39 H 0.235469 -0.514495 4.453183 0
M  V30 40 H 1.229592 1.991308 4.484511 0
M  V30 41 H 0.601221 -0.838575 2.021260 0
M  V30 42 H -1.620760 0.217359 3.246038 0
M  V30 43 H 0.656803 2.143233 2.185216 0
M  V30 44 H 0.762205 2.320189 -0.217343 0
M  V30 45 H -3.762639 1.415718 -1.270764 0
M  V30 46 H -2.965057 0.684882 -2.673405 0
M  V30 47 H -4.566626 -0.878409 -1.758311 0
M  V30 48 H -3.566358 0.010092 0.932323 0
M  V30 49 H -5.060507 -0.932130 0.427628 0
M  V30 50 H -2.368147 -2.084708 1.199458 0
M  V30 51 H -4.077428 -2.782766 1.260392 0
M  V30 52 H -2.277270 -3.487105 -0.603340 0
M  V30 53 H -4.050205 -3.210527 -1.040462 0
M  V30 54 H 0.301658 -0.716269 0.013032 0
M  V30 55 H 1.778025 0.978496 -1.954604 0
M  V30 56 H 2.316419 -0.596966 -1.466023 0
M  V30 57 H 3.839802 0.757678 -0.058489 0
M  V30 58 H 2.758851 2.080588 -0.273653 0
M  V30 59 H 2.832269 1.759413 1.927774 0
M  V30 END ATOM
M  V30 BEGIN BOND
M  V30 1 1 1 2
M  V30 2 1 2 3
M  V30 3 1 3 4
M  V30 4 2 4 5
M  V30 5 1 4 6
M  V30 6 1 6 7
M  V30 7 2 7 8
M  V30 8 1 8 9
M  V30 9 1 9 10
M  V30 10 1 10 11
M  V30 11 1 10 12
M  V30 12 1 12 13
M  V30 13 1 12 14
M  V30 14 1 14 15
M  V30 15 1 15 16
M  V30 16 2 16 17
M  V30 17 1 16 18
M  V30 18 1 18 19
M  V30 19 1 19 20
M  V30 20 1 20 21
M  V30 21 1 21 22
M  V30 22 1 22 23
M  V30 23 1 23 24
M  V30 24 1 18 25
M  V30 25 2 25 26
M  V30 26 1 25 27
M  V30 27 1 27 28
M  V30 28 1 28 29
M  V30 29 1 29 30
M  V30 30 1 30 8
M  V30 31 1 30 14
M  V30 32 1 27 15
M  V30 33 1 24 20
M  V30 34 1 1 31
M  V30 35 1 1 32
M  V30 36 1 1 33
M  V30 37 1 2 34
M  V30 38 1 2 35
M  V30 39 1 6 36
M  V30 40 1 9 37
M  V30 41 1 9 38
M  V30 42 1 10 39 CFG=1
M  V30 43 1 11 40
M  V30 44 1 12 41 CFG=3
M  V30 45 1 13 42
M  V30 46 1 14 43 CFG=1
M  V30 47 1 15 44 CFG=3
M  V30 48 1 19 45
M  V30 49 1 19 46
M  V30 50 1 20 47 CFG=3
M  V30 51 1 21 48
M  V30 52 1 21 49
M  V30 53 1 22 50
M  V30 54 1 22 51
M  V30 55 1 23 52
M  V30 56 1 23 53
M  V30 57 1 27 54 CFG=1
M  V30 58 1 28 55
M  V30 59 1 28 56
M  V30 60 1 29 57
M  V30 61 1 29 58
M  V30 62 1 30 59 CFG=1
M  V30 END BOND
M  V30 END CTAB
M  END
>  <Dataset>  (984) 
ChEMBL_Kinases

>  <Ligand_Instance>  (984) 
nan

>  <PDB_ID>  (984) 
nan

>  <Standardized_SMILES>  (984) 
CCOC(=O)N/N=C1/C[C@@H](O)[C@@H](O)[C@@H]2[C@@H]3C(=O)N(C[C@@H]4CCCO4)C(=O)[C@H]3CC[C@H]12

>  <Name>  (984) 
nan

>  <Pocket>  (984) 
nan

>  <ATP_Site>  (984) 
nan

>  <Peripheral>  (984) 
nan

>  <Num_H_Atoms_ProtBoundConf>  (984) 
nan

>  <Num_Resolved_Atoms>  (984) 
nan

>  <Num_Not_Resolved_Atoms>  (984) 
nan

$$$$
CHEMBL1516006
     RDKit          3D

  0  0  0  0  0  0  0  0  0  0999 V3000
M  V30 BEGIN CTAB
M  V30 COUNTS 56 60 0 0 0
M  V30 BEGIN ATOM
M  V30 1 C 5.637056 -3.672092 6.732575 0
M  V30 2 O 4.272829 -3.803500 6.402383 0
M  V30 3 C 3.744850 -3.083150 5.346206 0
M  V30 4 C 2.386791 -3.397651 5.238615 0
M  V30 5 C 1.588616 -2.811918 4.247892 0
M  V30 6 C 2.156614 -1.914117 3.370603 0
M  V30 7 C 1.453882 -1.227583 2.292498 0
M  V30 8 N 1.637873 0.107256 2.091576 0
M  V30 9 C 0.976271 0.718609 1.087803 0
M  V30 10 C 1.178046 2.070011 0.904940 0
M  V30 11 N 0.505767 2.676414 -0.108647 0
M  V30 12 C -0.327135 2.004989 -0.912582 0
M  V30 13 N -1.010421 2.677346 -1.958612 0
M  V30 14 C -0.934369 4.089102 -2.267591 0
M  V30 15 C -2.305495 4.675051 -2.019468 0
M  V30 16 O -3.289914 3.726456 -1.916144 0
M  V30 17 C -3.231977 2.746070 -2.903896 0
M  V30 18 C -1.905899 2.020979 -2.893093 0
M  V30 19 N -0.542866 0.688747 -0.758091 0
M  V30 20 C 0.104020 0.023304 0.243381 0
M  V30 21 N -0.070948 -1.291242 0.448613 0
M  V30 22 C -0.969895 -1.933247 -0.446709 0
M  V30 23 C -0.426786 -2.205128 -1.685010 0
M  V30 24 C -1.202199 -2.826733 -2.640785 0
M  V30 25 C -2.527106 -3.185670 -2.376992 0
M  V30 26 O -3.371524 -3.811632 -3.280801 0
M  V30 27 C -4.694984 -4.168887 -3.011184 0
M  V30 28 C -3.066660 -2.908441 -1.127606 0
M  V30 29 C -2.277351 -2.286173 -0.182993 0
M  V30 30 C 0.590823 -1.900835 1.452057 0
M  V30 31 O 0.375865 -3.139407 1.584285 0
M  V30 32 C 3.492540 -1.610773 3.483667 0
M  V30 33 C 4.274751 -2.181741 4.450814 0
M  V30 34 H 5.741191 -3.801220 7.849343 0
M  V30 35 H 6.236054 -4.457662 6.215398 0
M  V30 36 H 5.957142 -2.646105 6.471911 0
M  V30 37 H 1.784701 -4.085159 5.850501 0
M  V30 38 H 0.537413 -3.007834 4.107527 0
M  V30 39 H 1.853162 2.606596 1.558749 0
M  V30 40 H -0.705503 4.258526 -3.343032 0
M  V30 41 H -0.212816 4.617731 -1.609650 0
M  V30 42 H -2.580129 5.402822 -2.833643 0
M  V30 43 H -2.315924 5.278994 -1.067144 0
M  V30 44 H -3.426686 3.141711 -3.899763 0
M  V30 45 H -4.013361 2.001266 -2.654264 0
M  V30 46 H -2.007058 0.969543 -2.541068 0
M  V30 47 H -1.474860 2.065819 -3.892140 0
M  V30 48 H 0.594542 -1.957111 -1.966283 0
M  V30 49 H -0.898585 -3.095872 -3.649940 0
M  V30 50 H -5.042538 -5.000291 -3.685162 0
M  V30 51 H -5.402613 -3.334353 -3.233006 0
M  V30 52 H -4.898189 -4.522980 -1.993765 0
M  V30 53 H -4.064786 -3.121142 -0.773937 0
M  V30 54 H -2.598477 -2.021549 0.828834 0
M  V30 55 H 4.013133 -0.928509 2.848717 0
M  V30 56 H 5.326626 -2.033497 4.646958 0
M  V30 END ATOM
M  V30 BEGIN BOND
M  V30 1 1 1 2
M  V30 2 1 2 3
M  V30 3 2 3 4
M  V30 4 1 4 5
M  V30 5 2 5 6
M  V30 6 1 6 7
M  V30 7 2 7 8
M  V30 8 1 8 9
M  V30 9 2 9 10
M  V30 10 1 10 11
M  V30 11 2 11 12
M  V30 12 1 12 13
M  V30 13 1 13 14
M  V30 14 1 14 15
M  V30 15 1 15 16
M  V30 16 1 16 17
M  V30 17 1 17 18
M  V30 18 1 12 19
M  V30 19 2 19 20
M  V30 20 1 20 21
M  V30 21 1 21 22
M  V30 22 2 22 23
M  V30 23 1 23 24
M  V30 24 2 24 25
M  V30 25 1 25 26
M  V30 26 1 26 27
M  V30 27 1 25 28
M  V30 28 2 28 29
M  V30 29 1 21 30
M  V30 30 2 30 31
M  V30 31 1 6 32
M  V30 32 2 32 33
M  V30 33 1 33 3
M  V30 34 1 30 7
M  V30 35 1 20 9
M  V30 36 1 29 22
M  V30 37 1 18 13
M  V30 38 1 1 34
M  V30 39 1 1 35
M  V30 40 1 1 36
M  V30 41 1 4 37
M  V30 42 1 5 38
M  V30 43 1 10 39
M  V30 44 1 14 40
M  V30 45 1 14 41
M  V30 46 1 15 42
M  V30 47 1 15 43
M  V30 48 1 17 44
M  V30 49 1 17 45
M  V30 50 1 18 46
M  V30 51 1 18 47
M  V30 52 1 23 48
M  V30 53 1 24 49
M  V30 54 1 27 50
M  V30 55 1 27 51
M  V30 56 1 27 52
M  V30 57 1 28 53
M  V30 58 1 29 54
M  V30 59 1 32 55
M  V30 60 1 33 56
M  V30 END BOND
M  V30 END CTAB
M  END
>  <Dataset>  (985) 
ChEMBL_Kinases

>  <Ligand_Instance>  (985) 
nan

>  <PDB_ID>  (985) 
nan

>  <Standardized_SMILES>  (985) 
COc1ccc(-c2nc3cnc(N4CCOCC4)nc3n(-c3ccc(OC)cc3)c2=O)cc1

>  <Name>  (985) 
nan

>  <Pocket>  (985) 
nan

>  <ATP_Site>  (985) 
nan

>  <Peripheral>  (985) 
nan

>  <Num_H_Atoms_ProtBoundConf>  (985) 
nan

>  <Num_Resolved_Atoms>  (985) 
nan

>  <Num_Not_Resolved_Atoms>  (985) 
nan

$$$$
CHEMBL1516882
     RDKit          3D

  0  0  0  0  0  0  0  0  0  0999 V3000
M  V30 BEGIN CTAB
M  V30 COUNTS 53 56 0 0 0
M  V30 BEGIN ATOM
M  V30 1 C 6.004963 -1.240136 5.083134 0
M  V30 2 C 4.550970 -1.664208 4.959446 0
M  V30 3 O 4.008647 -1.192713 3.731017 0
M  V30 4 C 3.924432 0.143511 3.378756 0
M  V30 5 O 4.348100 1.041483 4.184678 0
M  V30 6 C 3.315622 0.223630 2.047383 0
M  V30 7 C 3.143915 1.636199 1.553055 0
M  V30 8 C 4.270863 2.211770 0.849735 0
M  V30 9 S 3.535613 3.868297 0.449387 0
M  V30 10 C 1.974772 3.534613 1.228012 0
M  V30 11 N 0.755756 4.294409 1.378706 0
M  V30 12 C -0.048871 3.897542 0.287206 0
M  V30 13 O 0.520396 3.032246 -0.464408 0
M  V30 14 C -1.412975 4.272621 -0.164492 0
M  V30 15 S -2.673014 3.344691 0.765051 0
M  V30 16 C -2.519543 1.607197 0.520610 0
M  V30 17 N -1.695428 1.019354 1.436953 0
M  V30 18 C -1.438027 -0.298886 1.420547 0
M  V30 19 N -1.999368 -1.080638 0.480467 0
M  V30 20 C -2.824990 -0.579283 -0.460517 0
M  V30 21 C -3.068727 0.772352 -0.416366 0
M  V30 22 C -3.922495 1.157921 -1.426408 0
M  V30 23 N -4.185374 -0.008291 -2.081176 0
M  V30 24 N -3.554636 -1.020690 -1.530402 0
M  V30 25 C -3.450767 -2.421730 -1.785870 0
M  V30 26 C -3.440987 -3.361772 -0.773231 0
M  V30 27 C -3.327737 -4.718332 -0.995367 0
M  V30 28 C -3.219429 -5.127379 -2.326050 0
M  V30 29 O -3.096089 -6.450407 -2.729415 0
M  V30 30 C -3.057237 -7.563463 -1.891388 0
M  V30 31 C -3.227480 -4.194916 -3.372250 0
M  V30 32 C -3.344115 -2.826518 -3.103634 0
M  V30 33 N 1.989792 2.248427 1.766266 0
M  V30 34 H 6.404262 -0.937819 4.078435 0
M  V30 35 H 6.047042 -0.431466 5.826506 0
M  V30 36 H 6.634531 -2.071935 5.452358 0
M  V30 37 H 3.951602 -1.341293 5.836448 0
M  V30 38 H 4.537864 -2.771144 4.913188 0
M  V30 39 H 2.322099 -0.265408 2.030388 0
M  V30 40 H 3.993097 -0.347373 1.342244 0
M  V30 41 H 5.199957 1.769520 0.659372 0
M  V30 42 H 0.293928 4.996131 1.983091 0
M  V30 43 H -1.584811 5.348678 -0.034190 0
M  V30 44 H -1.567708 4.059554 -1.234202 0
M  V30 45 H -0.780276 -0.782287 2.146141 0
M  V30 46 H -4.289453 2.147935 -1.643834 0
M  V30 47 H -3.526778 -3.048487 0.275650 0
M  V30 48 H -3.315643 -5.478641 -0.231145 0
M  V30 49 H -3.574248 -8.420984 -2.407652 0
M  V30 50 H -2.006836 -7.924393 -1.708202 0
M  V30 51 H -3.496695 -7.447935 -0.901493 0
M  V30 52 H -3.144867 -4.507711 -4.398623 0
M  V30 53 H -3.347551 -2.115823 -3.916314 0
M  V30 END ATOM
M  V30 BEGIN BOND
M  V30 1 1 1 2
M  V30 2 1 2 3
M  V30 3 1 3 4
M  V30 4 2 4 5
M  V30 5 1 4 6
M  V30 6 1 6 7
M  V30 7 2 7 8
M  V30 8 1 8 9
M  V30 9 1 9 10
M  V30 10 1 10 11
M  V30 11 1 11 12
M  V30 12 2 12 13
M  V30 13 1 12 14
M  V30 14 1 14 15
M  V30 15 1 15 16
M  V30 16 2 16 17
M  V30 17 1 17 18
M  V30 18 2 18 19
M  V30 19 1 19 20
M  V30 20 2 20 21
M  V30 21 1 21 22
M  V30 22 2 22 23
M  V30 23 1 23 24
M  V30 24 1 24 25
M  V30 25 2 25 26
M  V30 26 1 26 27
M  V30 27 2 27 28
M  V30 28 1 28 29
M  V30 29 1 29 30
M  V30 30 1 28 31
M  V30 31 2 31 32
M  V30 32 2 10 33
M  V30 33 1 33 7
M  V30 34 1 21 16
M  V30 35 1 32 25
M  V30 36 1 24 20
M  V30 37 1 1 34
M  V30 38 1 1 35
M  V30 39 1 1 36
M  V30 40 1 2 37
M  V30 41 1 2 38
M  V30 42 1 6 39
M  V30 43 1 6 40
M  V30 44 1 8 41
M  V30 45 1 11 42
M  V30 46 1 14 43
M  V30 47 1 14 44
M  V30 48 1 18 45
M  V30 49 1 22 46
M  V30 50 1 26 47
M  V30 51 1 27 48
M  V30 52 1 30 49
M  V30 53 1 30 50
M  V30 54 1 30 51
M  V30 55 1 31 52
M  V30 56 1 32 53
M  V30 END BOND
M  V30 END CTAB
M  END
>  <Dataset>  (986) 
ChEMBL_Kinases

>  <Ligand_Instance>  (986) 
nan

>  <PDB_ID>  (986) 
nan

>  <Standardized_SMILES>  (986) 
CCOC(=O)Cc1csc(NC(=O)CSc2ncnc3c2cnn3-c2ccc(OC)cc2)n1

>  <Name>  (986) 
nan

>  <Pocket>  (986) 
nan

>  <ATP_Site>  (986) 
nan

>  <Peripheral>  (986) 
nan

>  <Num_H_Atoms_ProtBoundConf>  (986) 
nan

>  <Num_Resolved_Atoms>  (986) 
nan

>  <Num_Not_Resolved_Atoms>  (986) 
nan

$$$$
CHEMBL1516054
     RDKit          3D

  0  0  0  0  0  0  0  0  0  0999 V3000
M  V30 BEGIN CTAB
M  V30 COUNTS 48 52 0 0 0
M  V30 BEGIN ATOM
M  V30 1 C 1.873702 -0.858750 3.035495 0
M  V30 2 O 1.897331 -1.286357 1.710896 0
M  V30 3 C 2.916398 -1.937627 1.059481 0
M  V30 4 C 4.049853 -2.190212 1.831429 0
M  V30 5 C 5.128707 -2.840072 1.267399 0
M  V30 6 C 5.060661 -3.228696 -0.060909 0
M  V30 7 C 3.940384 -2.978804 -0.823443 0
M  V30 8 C 2.854001 -2.332660 -0.280761 0
M  V30 9 C 1.558114 -1.972637 -0.936503 0
M  V30 10 N 1.368841 -0.636809 -1.289565 0
M  V30 11 C 1.191276 0.724098 -1.660640 0
M  V30 12 N 1.888643 1.528463 -2.475724 0
M  V30 13 C 1.599912 2.794816 -2.728017 0
M  V30 14 N 0.524419 3.271732 -2.104402 0
M  V30 15 C -0.269805 2.598002 -1.265391 0
M  V30 16 C -1.331600 3.297476 -0.732194 0
M  V30 17 C -2.134525 2.580824 0.131447 0
M  V30 18 C -1.874971 1.261856 0.425412 0
M  V30 19 C -2.707061 0.474722 1.343575 0
M  V30 20 C -3.315870 1.106573 2.396074 0
M  V30 21 C -4.091356 0.357126 3.251706 0
M  V30 22 C -4.260451 -1.005816 3.063537 0
M  V30 23 C -3.632004 -1.584266 1.999859 0
M  V30 24 C -2.840669 -0.895367 1.103470 0
M  V30 25 O -3.936348 -2.935427 2.004946 0
M  V30 26 C -4.971128 -3.155214 2.930268 0
M  V30 27 O -4.955407 -1.992527 3.731994 0
M  V30 28 C -0.791798 0.663099 -0.161171 0
M  V30 29 C 0.093883 1.285731 -1.051861 0
M  V30 30 H 2.172042 0.213038 3.180463 0
M  V30 31 H 0.791841 -0.892751 3.359204 0
M  V30 32 H 2.387231 -1.520236 3.759769 0
M  V30 33 H 4.175654 -1.918140 2.868533 0
M  V30 34 H 6.036055 -3.062351 1.824114 0
M  V30 35 H 5.874931 -3.750092 -0.583335 0
M  V30 36 H 3.804916 -3.248602 -1.868746 0
M  V30 37 H 0.722177 -2.237208 -0.187398 0
M  V30 38 H 1.355368 -2.666190 -1.801883 0
M  V30 39 H 2.255670 -0.774167 -1.883103 0
M  V30 40 H 2.261327 3.307857 -3.408163 0
M  V30 41 H -1.494454 4.333725 -0.994052 0
M  V30 42 H -2.985136 3.068784 0.585518 0
M  V30 43 H -3.164817 2.163423 2.514092 0
M  V30 44 H -4.591587 0.816568 4.098158 0
M  V30 45 H -2.358173 -1.408832 0.265024 0
M  V30 46 H -5.924602 -3.286900 2.381546 0
M  V30 47 H -4.801684 -4.049666 3.587665 0
M  V30 48 H -0.605866 -0.368748 0.080911 0
M  V30 END ATOM
M  V30 BEGIN BOND
M  V30 1 1 1 2
M  V30 2 1 2 3
M  V30 3 2 3 4
M  V30 4 1 4 5
M  V30 5 2 5 6
M  V30 6 1 6 7
M  V30 7 2 7 8
M  V30 8 1 8 9
M  V30 9 1 9 10
M  V30 10 1 10 11
M  V30 11 2 11 12
M  V30 12 1 12 13
M  V30 13 2 13 14
M  V30 14 1 14 15
M  V30 15 2 15 16
M  V30 16 1 16 17
M  V30 17 2 17 18
M  V30 18 1 18 19
M  V30 19 2 19 20
M  V30 20 1 20 21
M  V30 21 2 21 22
M  V30 22 1 22 23
M  V30 23 2 23 24
M  V30 24 1 23 25
M  V30 25 1 25 26
M  V30 26 1 26 27
M  V30 27 1 18 28
M  V30 28 2 28 29
M  V30 29 1 8 3
M  V30 30 1 29 11
M  V30 31 1 29 15
M  V30 32 1 24 19
M  V30 33 1 27 22
M  V30 34 1 1 30
M  V30 35 1 1 31
M  V30 36 1 1 32
M  V30 37 1 4 33
M  V30 38 1 5 34
M  V30 39 1 6 35
M  V30 40 1 7 36
M  V30 41 1 9 37
M  V30 42 1 9 38
M  V30 43 1 10 39
M  V30 44 1 13 40
M  V30 45 1 16 41
M  V30 46 1 17 42
M  V30 47 1 20 43
M  V30 48 1 21 44
M  V30 49 1 24 45
M  V30 50 1 26 46
M  V30 51 1 26 47
M  V30 52 1 28 48
M  V30 END BOND
M  V30 END CTAB
M  END
>  <Dataset>  (987) 
ChEMBL_Kinases

>  <Ligand_Instance>  (987) 
nan

>  <PDB_ID>  (987) 
nan

>  <Standardized_SMILES>  (987) 
COc1ccccc1CNc1ncnc2ccc(-c3ccc4c(c3)OCO4)cc12

>  <Name>  (987) 
nan

>  <Pocket>  (987) 
nan

>  <ATP_Site>  (987) 
nan

>  <Peripheral>  (987) 
nan

>  <Num_H_Atoms_ProtBoundConf>  (987) 
nan

>  <Num_Resolved_Atoms>  (987) 
nan

>  <Num_Not_Resolved_Atoms>  (987) 
nan

$$$$
CHEMBL1516103
     RDKit          3D

  0  0  0  0  0  0  0  0  0  0999 V3000
M  V30 BEGIN CTAB
M  V30 COUNTS 45 48 0 0 0
M  V30 BEGIN ATOM
M  V30 1 C -0.257707 -5.550846 0.170815 0
M  V30 2 O 0.016218 -4.181853 0.145453 0
M  V30 3 C 1.293070 -3.616617 0.120162 0
M  V30 4 C 2.358861 -4.485394 0.120468 0
M  V30 5 C 3.653948 -4.013277 0.096429 0
M  V30 6 C 3.850557 -2.648773 0.072064 0
M  V30 7 C 2.747785 -1.822446 0.072853 0
M  V30 8 C 1.438325 -2.244874 0.096398 0
M  V30 9 C 0.269003 -1.378453 0.101030 0
M  V30 10 N 0.293347 -0.036561 0.107983 0
M  V30 11 C -0.779369 0.745893 0.103598 0
M  V30 12 N -0.734312 2.160051 0.101214 0
M  V30 13 C 0.446892 2.997760 0.120646 0
M  V30 14 C 1.241820 2.851463 1.375582 0
M  V30 15 C 0.766911 3.744874 2.344332 0
M  V30 16 C 1.331252 3.819453 3.603146 0
M  V30 17 C 2.389132 2.995818 3.919358 0
M  V30 18 C 2.853220 2.119999 2.966529 0
M  V30 19 C 2.299944 2.035861 1.708736 0
M  V30 20 C -1.996565 0.100855 0.091057 0
M  V30 21 C -3.214471 0.738729 0.084988 0
M  V30 22 C -4.435217 0.099264 0.072650 0
M  V30 23 C -4.473627 -1.270219 0.065673 0
M  V30 24 C -3.293908 -1.938740 0.071319 0
M  V30 25 C -2.089931 -1.270422 0.083670 0
M  V30 26 N -0.936813 -1.960950 0.089079 0
M  V30 27 H -0.200807 -5.929864 -0.878964 0
M  V30 28 H 0.308927 -6.143932 0.890501 0
M  V30 29 H -1.349392 -5.646897 0.433903 0
M  V30 30 H 2.187025 -5.552700 0.139712 0
M  V30 31 H 4.447552 -4.745694 0.098072 0
M  V30 32 H 4.857290 -2.258819 0.053012 0
M  V30 33 H 2.949021 -0.772609 0.050698 0
M  V30 34 H -1.576225 2.749170 0.085946 0
M  V30 35 H 0.271485 4.048757 -0.128792 0
M  V30 36 H 1.109769 2.558927 -0.691316 0
M  V30 37 H -0.063216 4.458669 2.239339 0
M  V30 38 H 1.005071 4.488678 4.386463 0
M  V30 39 H 2.909110 2.964315 4.866872 0
M  V30 40 H 3.684333 1.425342 3.114007 0
M  V30 41 H 2.559058 1.409733 0.875129 0
M  V30 42 H -3.272077 1.814454 0.090003 0
M  V30 43 H -5.375078 0.641431 0.068203 0
M  V30 44 H -5.386954 -1.842003 0.055985 0
M  V30 45 H -3.274424 -3.030558 0.066139 0
M  V30 END ATOM
M  V30 BEGIN BOND
M  V30 1 1 1 2
M  V30 2 1 2 3
M  V30 3 2 3 4
M  V30 4 1 4 5
M  V30 5 2 5 6
M  V30 6 1 6 7
M  V30 7 2 7 8
M  V30 8 1 8 9
M  V30 9 2 9 10
M  V30 10 1 10 11
M  V30 11 1 11 12
M  V30 12 1 12 13
M  V30 13 1 13 14
M  V30 14 2 14 15
M  V30 15 1 15 16
M  V30 16 2 16 17
M  V30 17 1 17 18
M  V30 18 2 18 19
M  V30 19 2 11 20
M  V30 20 1 20 21
M  V30 21 2 21 22
M  V30 22 1 22 23
M  V30 23 2 23 24
M  V30 24 1 24 25
M  V30 25 2 25 26
M  V30 26 1 8 3
M  V30 27 1 26 9
M  V30 28 1 19 14
M  V30 29 1 25 20
M  V30 30 1 1 27
M  V30 31 1 1 28
M  V30 32 1 1 29
M  V30 33 1 4 30
M  V30 34 1 5 31
M  V30 35 1 6 32
M  V30 36 1 7 33
M  V30 37 1 12 34
M  V30 38 1 13 35
M  V30 39 1 13 36
M  V30 40 1 15 37
M  V30 41 1 16 38
M  V30 42 1 17 39
M  V30 43 1 18 40
M  V30 44 1 19 41
M  V30 45 1 21 42
M  V30 46 1 22 43
M  V30 47 1 23 44
M  V30 48 1 24 45
M  V30 END BOND
M  V30 END CTAB
M  END
>  <Dataset>  (988) 
ChEMBL_Kinases

>  <Ligand_Instance>  (988) 
nan

>  <PDB_ID>  (988) 
nan

>  <Standardized_SMILES>  (988) 
COc1ccccc1-c1nc(NCc2ccccc2)c2ccccc2n1

>  <Name>  (988) 
nan

>  <Pocket>  (988) 
nan

>  <ATP_Site>  (988) 
nan

>  <Peripheral>  (988) 
nan

>  <Num_H_Atoms_ProtBoundConf>  (988) 
nan

>  <Num_Resolved_Atoms>  (988) 
nan

>  <Num_Not_Resolved_Atoms>  (988) 
nan

$$$$
CHEMBL1516530
     RDKit          3D

  0  0  0  0  0  0  0  0  0  0999 V3000
M  V30 BEGIN CTAB
M  V30 COUNTS 46 48 0 0 0
M  V30 BEGIN ATOM
M  V30 1 C 1.411589 -6.110325 1.899693 0
M  V30 2 O 0.555868 -5.164932 1.311977 0
M  V30 3 C 0.484291 -5.314503 -0.065416 0
M  V30 4 C -0.457827 -4.256081 -0.596661 0
M  V30 5 N 0.052256 -2.958644 -0.257338 0
M  V30 6 C 1.284015 -2.461860 -0.755897 0
M  V30 7 N 2.062378 -3.148839 -1.587327 0
M  V30 8 C 3.227421 -2.710146 -2.085092 0
M  V30 9 N 3.692218 -1.472916 -1.743033 0
M  V30 10 C 2.953107 -0.702997 -0.893636 0
M  V30 11 C 3.439437 0.544596 -0.559779 0
M  V30 12 C 2.710925 1.347826 0.299776 0
M  V30 13 C 1.502489 0.876295 0.807665 0
M  V30 14 C 0.726586 1.723747 1.718066 0
M  V30 15 C 1.369216 2.600319 2.571509 0
M  V30 16 C 0.639313 3.389120 3.422009 0
M  V30 17 C -0.738853 3.293607 3.411545 0
M  V30 18 C -1.444761 2.443364 2.588845 0
M  V30 19 N -2.858241 2.339448 2.573828 0
M  V30 20 S -3.841720 2.283140 1.177602 0
M  V30 21 C -3.701567 3.759215 0.183059 0
M  V30 22 O -5.271751 2.089783 1.591848 0
M  V30 23 O -3.470809 1.071516 0.339599 0
M  V30 24 C -0.658685 1.665527 1.745973 0
M  V30 25 C 1.092446 -0.384606 0.419813 0
M  V30 26 C 1.772161 -1.217375 -0.424595 0
M  V30 27 H 2.456400 -6.034584 1.515834 0
M  V30 28 H 1.472158 -5.879238 2.985962 0
M  V30 29 H 1.104619 -7.146564 1.737271 0
M  V30 30 H 1.484896 -5.131817 -0.496527 0
M  V30 31 H 0.099382 -6.326566 -0.348954 0
M  V30 32 H -1.453513 -4.478634 -0.183695 0
M  V30 33 H -0.551746 -4.355329 -1.715394 0
M  V30 34 H -0.578194 -2.437905 0.385660 0
M  V30 35 H 3.722556 -3.410152 -2.747866 0
M  V30 36 H 4.396318 0.858535 -0.992380 0
M  V30 37 H 3.114226 2.300966 0.535424 0
M  V30 38 H 2.462530 2.609569 2.512213 0
M  V30 39 H 1.144781 4.070565 4.084401 0
M  V30 40 H -1.289395 3.929711 4.095163 0
M  V30 41 H -3.211260 2.302421 3.561924 0
M  V30 42 H -4.598249 4.401170 0.331561 0
M  V30 43 H -2.831110 4.364662 0.506210 0
M  V30 44 H -3.627974 3.503849 -0.883580 0
M  V30 45 H -1.108732 0.956906 1.051332 0
M  V30 46 H 0.149096 -0.668310 0.859312 0
M  V30 END ATOM
M  V30 BEGIN BOND
M  V30 1 1 1 2
M  V30 2 1 2 3
M  V30 3 1 3 4
M  V30 4 1 4 5
M  V30 5 1 5 6
M  V30 6 2 6 7
M  V30 7 1 7 8
M  V30 8 2 8 9
M  V30 9 1 9 10
M  V30 10 2 10 11
M  V30 11 1 11 12
M  V30 12 2 12 13
M  V30 13 1 13 14
M  V30 14 2 14 15
M  V30 15 1 15 16
M  V30 16 2 16 17
M  V30 17 1 17 18
M  V30 18 1 18 19
M  V30 19 1 19 20
M  V30 20 1 20 21
M  V30 21 2 20 22
M  V30 22 2 20 23
M  V30 23 2 18 24
M  V30 24 1 13 25
M  V30 25 2 25 26
M  V30 26 1 26 6
M  V30 27 1 26 10
M  V30 28 1 24 14
M  V30 29 1 1 27
M  V30 30 1 1 28
M  V30 31 1 1 29
M  V30 32 1 3 30
M  V30 33 1 3 31
M  V30 34 1 4 32
M  V30 35 1 4 33
M  V30 36 1 5 34
M  V30 37 1 8 35
M  V30 38 1 11 36
M  V30 39 1 12 37
M  V30 40 1 15 38
M  V30 41 1 16 39
M  V30 42 1 17 40
M  V30 43 1 19 41
M  V30 44 1 21 42
M  V30 45 1 21 43
M  V30 46 1 21 44
M  V30 47 1 24 45
M  V30 48 1 25 46
M  V30 END BOND
M  V30 END CTAB
M  END
>  <Dataset>  (989) 
ChEMBL_Kinases

>  <Ligand_Instance>  (989) 
nan

>  <PDB_ID>  (989) 
nan

>  <Standardized_SMILES>  (989) 
COCCNc1ncnc2ccc(-c3cccc(NS(C)(=O)=O)c3)cc12

>  <Name>  (989) 
nan

>  <Pocket>  (989) 
nan

>  <ATP_Site>  (989) 
nan

>  <Peripheral>  (989) 
nan

>  <Num_H_Atoms_ProtBoundConf>  (989) 
nan

>  <Num_Resolved_Atoms>  (989) 
nan

>  <Num_Not_Resolved_Atoms>  (989) 
nan

$$$$
CHEMBL1516533
     RDKit          3D

  0  0  0  0  0  0  0  0  0  0999 V3000
M  V30 BEGIN CTAB
M  V30 COUNTS 57 60 0 0 0
M  V30 BEGIN ATOM
M  V30 1 C 0.971775 -1.331581 4.955797 0
M  V30 2 O 1.337126 -0.720687 3.733023 0
M  V30 3 C 2.314755 -1.316064 2.968330 0
M  V30 4 C 3.003039 -2.492564 3.281555 0
M  V30 5 C 3.962630 -2.992734 2.436746 0
M  V30 6 C 4.297146 -2.382790 1.260361 0
M  V30 7 C 3.595108 -1.208280 0.969331 0
M  V30 8 C 2.607886 -0.643536 1.782319 0
M  V30 9 N 2.041843 0.446441 1.383223 0
M  V30 10 C 1.416203 1.358582 1.022501 0
M  V30 11 S 3.110990 1.923749 1.166031 0
M  V30 12 N 0.122802 1.819821 0.668772 0
M  V30 13 C -0.504685 2.442625 1.819764 0
M  V30 14 C -1.868356 2.956428 1.502765 0
M  V30 15 C -2.075040 4.258670 1.034433 0
M  V30 16 C -3.451739 4.416193 0.838063 0
M  V30 17 C -3.988311 3.193352 1.202347 0
M  V30 18 O -3.038643 2.391978 1.575590 0
M  V30 19 C -0.605077 1.762955 -0.584366 0
M  V30 20 C -0.766217 0.348404 -0.977001 0
M  V30 21 C -1.962249 -0.357186 -0.833506 0
M  V30 22 C -2.033894 -1.687433 -1.227118 0
M  V30 23 C -3.177837 -2.420285 -1.109132 0
M  V30 24 C -3.217161 -3.730791 -1.507538 0
M  V30 25 C -2.114878 -4.330129 -2.029956 0
M  V30 26 C -2.210000 -5.750589 -2.446323 0
M  V30 27 C -0.927151 -3.656571 -2.179736 0
M  V30 28 C 0.249224 -4.330899 -2.748358 0
M  V30 29 C -0.917793 -2.323958 -1.765328 0
M  V30 30 N 0.232679 -1.647036 -1.903682 0
M  V30 31 C 0.295646 -0.344529 -1.516147 0
M  V30 32 O 1.559328 0.239288 -1.718223 0
M  V30 33 H 0.238370 -2.143759 4.746294 0
M  V30 34 H 1.861576 -1.646889 5.504936 0
M  V30 35 H 0.431887 -0.591581 5.616722 0
M  V30 36 H 2.730294 -2.969103 4.217466 0
M  V30 37 H 4.470869 -3.894652 2.704995 0
M  V30 38 H 5.048405 -2.764088 0.588040 0
M  V30 39 H 3.886404 -0.741517 0.017389 0
M  V30 40 H 3.531103 2.461028 -0.087419 0
M  V30 41 H 0.169543 3.261316 2.147912 0
M  V30 42 H -0.545010 1.654629 2.609799 0
M  V30 43 H -1.316781 5.018427 0.851832 0
M  V30 44 H -3.870076 5.346172 0.475756 0
M  V30 45 H -5.057504 3.008831 1.155265 0
M  V30 46 H -1.544643 2.307903 -0.504912 0
M  V30 47 H 0.048807 2.269030 -1.340767 0
M  V30 48 H -2.818180 0.145766 -0.416090 0
M  V30 49 H -4.014422 -1.884505 -0.686719 0
M  V30 50 H -4.127858 -4.289422 -1.405936 0
M  V30 51 H -2.226819 -6.424194 -1.560906 0
M  V30 52 H -1.344018 -6.053132 -3.071423 0
M  V30 53 H -3.159153 -5.899670 -3.023382 0
M  V30 54 H 0.078835 -4.751461 -3.765401 0
M  V30 55 H 1.143272 -3.667964 -2.724185 0
M  V30 56 H 0.532825 -5.219128 -2.124317 0
M  V30 57 H 1.655140 1.063371 -2.288396 0
M  V30 END ATOM
M  V30 BEGIN BOND
M  V30 1 1 1 2
M  V30 2 1 2 3
M  V30 3 2 3 4
M  V30 4 1 4 5
M  V30 5 2 5 6
M  V30 6 1 6 7
M  V30 7 2 7 8
M  V30 8 1 8 9
M  V30 9 2 9 10 CFG=2
M  V30 10 1 10 11
M  V30 11 1 10 12
M  V30 12 1 12 13
M  V30 13 1 13 14
M  V30 14 2 14 15
M  V30 15 1 15 16
M  V30 16 2 16 17
M  V30 17 1 17 18
M  V30 18 1 12 19
M  V30 19 1 19 20
M  V30 20 2 20 21
M  V30 21 1 21 22
M  V30 22 2 22 23
M  V30 23 1 23 24
M  V30 24 2 24 25
M  V30 25 1 25 26
M  V30 26 1 25 27
M  V30 27 1 27 28
M  V30 28 2 27 29
M  V30 29 1 29 30
M  V30 30 2 30 31
M  V30 31 1 31 32
M  V30 32 1 8 3
M  V30 33 1 18 14
M  V30 34 1 31 20
M  V30 35 1 29 22
M  V30 36 1 1 33
M  V30 37 1 1 34
M  V30 38 1 1 35
M  V30 39 1 4 36
M  V30 40 1 5 37
M  V30 41 1 6 38
M  V30 42 1 7 39
M  V30 43 1 11 40
M  V30 44 1 13 41
M  V30 45 1 13 42
M  V30 46 1 15 43
M  V30 47 1 16 44
M  V30 48 1 17 45
M  V30 49 1 19 46
M  V30 50 1 19 47
M  V30 51 1 21 48
M  V30 52 1 23 49
M  V30 53 1 24 50
M  V30 54 1 26 51
M  V30 55 1 26 52
M  V30 56 1 26 53
M  V30 57 1 28 54
M  V30 58 1 28 55
M  V30 59 1 28 56
M  V30 60 1 32 57
M  V30 END BOND
M  V30 END CTAB
M  END
>  <Dataset>  (990) 
ChEMBL_Kinases

>  <Ligand_Instance>  (990) 
nan

>  <PDB_ID>  (990) 
nan

>  <Standardized_SMILES>  (990) 
COc1ccccc1N=C(S)N(Cc1ccco1)Cc1cc2ccc(C)c(C)c2nc1O

>  <Name>  (990) 
nan

>  <Pocket>  (990) 
nan

>  <ATP_Site>  (990) 
nan

>  <Peripheral>  (990) 
nan

>  <Num_H_Atoms_ProtBoundConf>  (990) 
nan

>  <Num_Resolved_Atoms>  (990) 
nan

>  <Num_Not_Resolved_Atoms>  (990) 
nan

$$$$
CHEMBL1516534
     RDKit          3D

  0  0  0  0  0  0  0  0  0  0999 V3000
M  V30 BEGIN CTAB
M  V30 COUNTS 45 47 0 0 0
M  V30 BEGIN ATOM
M  V30 1 C 0.551273 -5.282898 -0.363836 0
M  V30 2 O 1.716299 -5.077625 -1.110126 0
M  V30 3 C 2.316463 -3.856013 -1.329993 0
M  V30 4 C 3.465372 -3.882981 -2.099714 0
M  V30 5 C 4.110474 -2.686466 -2.353176 0
M  V30 6 C 3.600425 -1.514915 -1.840395 0
M  V30 7 C 2.456393 -1.475069 -1.072026 0
M  V30 8 C 1.876707 -0.260938 -0.506266 0
M  V30 9 C 2.422557 0.993330 -0.684128 0
M  V30 10 C 1.898897 2.158247 -0.162659 0
M  V30 11 C 2.532032 3.484137 -0.387998 0
M  V30 12 F 2.218278 4.384993 0.595183 0
M  V30 13 F 2.165113 4.027248 -1.600948 0
M  V30 14 F 3.920519 3.369849 -0.396307 0
M  V30 15 N 0.767242 2.016404 0.570307 0
M  V30 16 C 0.201864 0.811251 0.768428 0
M  V30 17 N -0.987616 0.690166 1.542923 0
M  V30 18 C -1.649525 -0.553131 1.797843 0
M  V30 19 C -2.063633 -0.764275 3.214547 0
M  V30 20 C -2.743687 0.421274 3.853958 0
M  V30 21 C -4.134250 0.626849 3.365622 0
M  V30 22 C -1.851014 1.620956 3.638206 0
M  V30 23 C -1.645574 1.820896 2.150599 0
M  V30 24 N 0.744234 -0.290362 0.243873 0
M  V30 25 C 1.815653 -2.668289 -0.820991 0
M  V30 26 H -0.385621 -5.079733 -0.945380 0
M  V30 27 H 0.494097 -6.355502 -0.053716 0
M  V30 28 H 0.476567 -4.669702 0.560334 0
M  V30 29 H 3.909260 -4.779468 -2.527750 0
M  V30 30 H 5.018476 -2.627563 -2.949800 0
M  V30 31 H 4.112124 -0.595533 -2.045860 0
M  V30 32 H 3.324607 1.110973 -1.267718 0
M  V30 33 H -1.001826 -1.413237 1.521735 0
M  V30 34 H -2.582375 -0.640542 1.175383 0
M  V30 35 H -1.239932 -1.074483 3.886305 0
M  V30 36 H -2.826385 -1.585897 3.231132 0
M  V30 37 H -2.754296 0.233099 4.938892 0
M  V30 38 H -4.453636 -0.200672 2.667503 0
M  V30 39 H -4.824013 0.724348 4.222490 0
M  V30 40 H -4.267785 1.547388 2.761664 0
M  V30 41 H -0.841232 1.333544 4.039004 0
M  V30 42 H -2.229905 2.552480 4.054456 0
M  V30 43 H -1.093093 2.767778 2.026120 0
M  V30 44 H -2.616966 1.943208 1.628426 0
M  V30 45 H 0.906273 -2.676126 -0.216003 0
M  V30 END ATOM
M  V30 BEGIN BOND
M  V30 1 1 1 2
M  V30 2 1 2 3
M  V30 3 2 3 4
M  V30 4 1 4 5
M  V30 5 2 5 6
M  V30 6 1 6 7
M  V30 7 1 7 8
M  V30 8 2 8 9
M  V30 9 1 9 10
M  V30 10 1 10 11
M  V30 11 1 11 12
M  V30 12 1 11 13
M  V30 13 1 11 14
M  V30 14 2 10 15
M  V30 15 1 15 16
M  V30 16 1 16 17
M  V30 17 1 17 18
M  V30 18 1 18 19
M  V30 19 1 19 20
M  V30 20 1 20 21
M  V30 21 1 20 22
M  V30 22 1 22 23
M  V30 23 2 16 24
M  V30 24 2 7 25
M  V30 25 1 25 3
M  V30 26 1 24 8
M  V30 27 1 23 17
M  V30 28 1 1 26
M  V30 29 1 1 27
M  V30 30 1 1 28
M  V30 31 1 4 29
M  V30 32 1 5 30
M  V30 33 1 6 31
M  V30 34 1 9 32
M  V30 35 1 18 33
M  V30 36 1 18 34
M  V30 37 1 19 35
M  V30 38 1 19 36
M  V30 39 1 20 37
M  V30 40 1 21 38
M  V30 41 1 21 39
M  V30 42 1 21 40
M  V30 43 1 22 41
M  V30 44 1 22 42
M  V30 45 1 23 43
M  V30 46 1 23 44
M  V30 47 1 25 45
M  V30 END BOND
M  V30 END CTAB
M  END
>  <Dataset>  (991) 
ChEMBL_Kinases

>  <Ligand_Instance>  (991) 
nan

>  <PDB_ID>  (991) 
nan

>  <Standardized_SMILES>  (991) 
COc1cccc(-c2cc(C(F)(F)F)nc(N3CCC(C)CC3)n2)c1

>  <Name>  (991) 
nan

>  <Pocket>  (991) 
nan

>  <ATP_Site>  (991) 
nan

>  <Peripheral>  (991) 
nan

>  <Num_H_Atoms_ProtBoundConf>  (991) 
nan

>  <Num_Resolved_Atoms>  (991) 
nan

>  <Num_Not_Resolved_Atoms>  (991) 
nan

$$$$
CHEMBL1516539
     RDKit          3D

  0  0  0  0  0  0  0  0  0  0999 V3000
M  V30 BEGIN CTAB
M  V30 COUNTS 39 41 0 0 0
M  V30 BEGIN ATOM
M  V30 1 C -1.145415 -2.430055 4.487062 0
M  V30 2 C -1.035291 -3.005704 3.121563 0
M  V30 3 C -1.858925 -3.985587 2.635350 0
M  V30 4 C -1.682124 -4.454681 1.364306 0
M  V30 5 C -0.692382 -3.955553 0.574957 0
M  V30 6 N 0.155998 -2.990929 0.985097 0 CHG=1 VAL=4
M  V30 7 C 1.234587 -2.415175 0.189659 0
M  V30 8 C 0.840752 -1.262467 -0.582077 0
M  V30 9 O 0.207461 -1.831323 -1.549334 0
M  V30 10 N 0.738608 0.112682 -0.901834 0
M  V30 11 C 0.020451 0.745299 -2.015415 0
M  V30 12 C -1.044066 1.672038 -1.530598 0
M  V30 13 C -0.451429 2.775748 -0.730076 0
M  V30 14 C 0.764800 2.318428 -0.022814 0
M  V30 15 C 1.370618 3.278533 0.795545 0
M  V30 16 C 2.525663 2.987653 1.517468 0
M  V30 17 C 3.127518 1.738154 1.459581 0
M  V30 18 C 2.515043 0.824866 0.655068 0
M  V30 19 C 1.373951 1.078959 -0.070792 0
M  V30 20 C -0.061113 -2.555908 2.260804 0
M  V30 21 H -0.159425 -2.108336 4.895616 0
M  V30 22 H -1.639401 -3.169766 5.163732 0
M  V30 23 H -1.848896 -1.552844 4.452137 0
M  V30 24 H -2.637126 -4.362094 3.290583 0
M  V30 25 H -2.357762 -5.231302 1.022358 0
M  V30 26 H -0.552308 -4.327419 -0.432828 0
M  V30 27 H 1.709669 -3.189580 -0.443185 0
M  V30 28 H 2.039869 -2.219958 0.972408 0
M  V30 29 H 0.716462 1.313230 -2.660934 0
M  V30 30 H -0.437079 -0.037140 -2.656955 0
M  V30 31 H -1.785215 1.122130 -0.911468 0
M  V30 32 H -1.517046 2.115114 -2.435343 0
M  V30 33 H -0.184737 3.652384 -1.372337 0
M  V30 34 H -1.186254 3.184073 0.018860 0
M  V30 35 H 0.984610 4.287507 0.914635 0
M  V30 36 H 3.001280 3.735256 2.157771 0
M  V30 37 H 4.011954 1.434288 1.979770 0
M  V30 38 H 2.912155 -0.148439 0.546015 0
M  V30 39 H 0.611507 -1.782884 2.601758 0
M  V30 END ATOM
M  V30 BEGIN BOND
M  V30 1 1 1 2
M  V30 2 2 2 3
M  V30 3 1 3 4
M  V30 4 2 4 5
M  V30 5 1 5 6
M  V30 6 1 6 7
M  V30 7 1 7 8
M  V30 8 2 8 9
M  V30 9 1 8 10
M  V30 10 1 10 11
M  V30 11 1 11 12
M  V30 12 1 12 13
M  V30 13 1 13 14
M  V30 14 2 14 15
M  V30 15 1 15 16
M  V30 16 2 16 17
M  V30 17 1 17 18
M  V30 18 2 18 19
M  V30 19 2 6 20
M  V30 20 1 20 2
M  V30 21 1 19 10
M  V30 22 1 19 14
M  V30 23 1 1 21
M  V30 24 1 1 22
M  V30 25 1 1 23
M  V30 26 1 3 24
M  V30 27 1 4 25
M  V30 28 1 5 26
M  V30 29 1 7 27
M  V30 30 1 7 28
M  V30 31 1 11 29
M  V30 32 1 11 30
M  V30 33 1 12 31
M  V30 34 1 12 32
M  V30 35 1 13 33
M  V30 36 1 13 34
M  V30 37 1 15 35
M  V30 38 1 16 36
M  V30 39 1 17 37
M  V30 40 1 18 38
M  V30 41 1 20 39
M  V30 END BOND
M  V30 END CTAB
M  END
>  <Dataset>  (992) 
ChEMBL_Kinases

>  <Ligand_Instance>  (992) 
nan

>  <PDB_ID>  (992) 
nan

>  <Standardized_SMILES>  (992) 
Cc1ccc[n+](CC(=O)N2CCCc3ccccc32)c1

>  <Name>  (992) 
nan

>  <Pocket>  (992) 
nan

>  <ATP_Site>  (992) 
nan

>  <Peripheral>  (992) 
nan

>  <Num_H_Atoms_ProtBoundConf>  (992) 
nan

>  <Num_Resolved_Atoms>  (992) 
nan

>  <Num_Not_Resolved_Atoms>  (992) 
nan

$$$$
CHEMBL1516785
     RDKit          3D

  0  0  0  0  0  0  0  0  0  0999 V3000
M  V30 BEGIN CTAB
M  V30 COUNTS 41 44 0 0 0
M  V30 BEGIN ATOM
M  V30 1 C -0.184557 -6.720566 1.248321 0
M  V30 2 C 0.841827 -5.655488 1.142271 0
M  V30 3 C 1.936473 -5.643350 2.151017 0
M  V30 4 S 2.942483 -4.154737 1.612876 0
M  V30 5 C 1.931892 -3.733881 0.252820 0
M  V30 6 C 2.176629 -2.610618 -0.633854 0
M  V30 7 N 1.537563 -1.387383 -0.194847 0
M  V30 8 C 1.705887 -0.216880 -0.984415 0
M  V30 9 N 2.439521 -0.244071 -2.108966 0
M  V30 10 C 2.652777 0.798267 -2.909967 0
M  V30 11 N 2.103469 1.974415 -2.589734 0
M  V30 12 C 1.349084 2.129326 -1.490824 0
M  V30 13 C 0.772888 3.333886 -1.142555 0
M  V30 14 C -0.007898 3.461320 0.008650 0
M  V30 15 C -0.195148 2.344776 0.802673 0
M  V30 16 C -1.009110 2.438638 2.021055 0
M  V30 17 C -1.693445 1.298910 2.380357 0
M  V30 18 C -2.504289 1.213962 3.498226 0
M  V30 19 C -2.627854 2.350878 4.297542 0
M  V30 20 C -1.940880 3.500264 3.939670 0
M  V30 21 Cl -2.111361 4.902851 4.951456 0
M  V30 22 C -1.127487 3.564627 2.806850 0
M  V30 23 C 0.394177 1.157611 0.426472 0
M  V30 24 C 1.161737 1.017657 -0.698674 0
M  V30 25 C 0.900749 -4.663882 0.213652 0
M  V30 26 H -1.092877 -6.363525 0.687273 0
M  V30 27 H 0.136851 -7.653446 0.785052 0
M  V30 28 H -0.533701 -6.821524 2.305507 0
M  V30 29 H 2.024450 -6.377817 2.961810 0
M  V30 30 H 1.726703 -2.872782 -1.628389 0
M  V30 31 H 3.256298 -2.437481 -0.696890 0
M  V30 32 H 0.997619 -1.462462 0.677361 0
M  V30 33 H 3.264421 0.670854 -3.800102 0
M  V30 34 H 0.971358 4.169395 -1.827098 0
M  V30 35 H -0.429457 4.414167 0.230515 0
M  V30 36 H -1.678327 0.345345 1.837138 0
M  V30 37 H -3.052432 0.334519 3.803907 0
M  V30 38 H -3.259980 2.318146 5.187442 0
M  V30 39 H -0.589163 4.436644 2.510507 0
M  V30 40 H 0.213117 0.338848 1.076778 0
M  V30 41 H 0.152824 -4.591464 -0.555801 0
M  V30 END ATOM
M  V30 BEGIN BOND
M  V30 1 1 1 2
M  V30 2 2 2 3
M  V30 3 1 3 4
M  V30 4 1 4 5
M  V30 5 1 5 6
M  V30 6 1 6 7
M  V30 7 1 7 8
M  V30 8 2 8 9
M  V30 9 1 9 10
M  V30 10 2 10 11
M  V30 11 1 11 12
M  V30 12 2 12 13
M  V30 13 1 13 14
M  V30 14 2 14 15
M  V30 15 1 15 16
M  V30 16 2 16 17
M  V30 17 1 17 18
M  V30 18 2 18 19
M  V30 19 1 19 20
M  V30 20 1 20 21
M  V30 21 2 20 22
M  V30 22 1 15 23
M  V30 23 2 23 24
M  V30 24 2 5 25
M  V30 25 1 25 2
M  V30 26 1 24 8
M  V30 27 1 24 12
M  V30 28 1 22 16
M  V30 29 1 1 26
M  V30 30 1 1 27
M  V30 31 1 1 28
M  V30 32 1 3 29
M  V30 33 1 6 30
M  V30 34 1 6 31
M  V30 35 1 7 32
M  V30 36 1 10 33
M  V30 37 1 13 34
M  V30 38 1 14 35
M  V30 39 1 17 36
M  V30 40 1 18 37
M  V30 41 1 19 38
M  V30 42 1 22 39
M  V30 43 1 23 40
M  V30 44 1 25 41
M  V30 END BOND
M  V30 END CTAB
M  END
>  <Dataset>  (993) 
ChEMBL_Kinases

>  <Ligand_Instance>  (993) 
nan

>  <PDB_ID>  (993) 
nan

>  <Standardized_SMILES>  (993) 
Cc1csc(CNc2ncnc3ccc(-c4cccc(Cl)c4)cc23)c1

>  <Name>  (993) 
nan

>  <Pocket>  (993) 
nan

>  <ATP_Site>  (993) 
nan

>  <Peripheral>  (993) 
nan

>  <Num_H_Atoms_ProtBoundConf>  (993) 
nan

>  <Num_Resolved_Atoms>  (993) 
nan

>  <Num_Not_Resolved_Atoms>  (993) 
nan

$$$$
CHEMBL1516868
     RDKit          3D

  0  0  0  0  0  0  0  0  0  0999 V3000
M  V30 BEGIN CTAB
M  V30 COUNTS 17 17 0 0 0
M  V30 BEGIN ATOM
M  V30 1 N -1.223471 1.558536 2.155113 0
M  V30 2 C -0.039939 0.813291 1.816440 0
M  V30 3 C 0.559214 0.051298 2.789445 0
M  V30 4 C 1.690304 -0.649146 2.436620 0
M  V30 5 C 2.181850 -0.570518 1.146910 0
M  V30 6 O 3.323981 -1.313988 0.897509 0
M  V30 7 C 1.538312 0.209527 0.215559 0
M  V30 8 N 2.063663 0.273885 -1.104526 0 CHG=1 VAL=4
M  V30 9 O 1.899145 1.274553 -1.856457 0
M  V30 10 O 2.811182 -0.614410 -1.860298 0 CHG=-1 VAL=1
M  V30 11 C 0.405027 0.929116 0.516317 0
M  V30 12 H -1.585810 2.170323 2.890926 0
M  V30 13 H -2.043455 1.541854 1.511375 0
M  V30 14 H 0.165600 -0.000934 3.794486 0
M  V30 15 H 2.158069 -1.242652 3.193443 0
M  V30 16 H 3.924304 -1.072289 0.143031 0
M  V30 17 H -0.111028 1.548610 -0.208868 0
M  V30 END ATOM
M  V30 BEGIN BOND
M  V30 1 1 1 2
M  V30 2 2 2 3
M  V30 3 1 3 4
M  V30 4 2 4 5
M  V30 5 1 5 6
M  V30 6 1 5 7
M  V30 7 1 7 8
M  V30 8 2 8 9
M  V30 9 1 8 10
M  V30 10 2 7 11
M  V30 11 1 11 2
M  V30 12 1 1 12
M  V30 13 1 1 13
M  V30 14 1 3 14
M  V30 15 1 4 15
M  V30 16 1 6 16
M  V30 17 1 11 17
M  V30 END BOND
M  V30 END CTAB
M  END
>  <Dataset>  (994) 
ChEMBL_Kinases

>  <Ligand_Instance>  (994) 
nan

>  <PDB_ID>  (994) 
nan

>  <Standardized_SMILES>  (994) 
Nc1ccc(O)c([N+](=O)[O-])c1

>  <Name>  (994) 
nan

>  <Pocket>  (994) 
nan

>  <ATP_Site>  (994) 
nan

>  <Peripheral>  (994) 
nan

>  <Num_H_Atoms_ProtBoundConf>  (994) 
nan

>  <Num_Resolved_Atoms>  (994) 
nan

>  <Num_Not_Resolved_Atoms>  (994) 
nan

$$$$
CHEMBL1516009
     RDKit          3D

  0  0  0  0  0  0  0  0  0  0999 V3000
M  V30 BEGIN CTAB
M  V30 COUNTS 41 44 0 0 0
M  V30 BEGIN ATOM
M  V30 1 C 0.942513 -3.642262 1.120794 0
M  V30 2 N 1.066317 -2.706283 0.028540 0
M  V30 3 C 0.313771 -3.196804 -1.136685 0
M  V30 4 C 0.407630 -2.264277 -2.290522 0
M  V30 5 C -0.532496 -1.236744 -2.446002 0
M  V30 6 C -0.182470 -0.544179 -3.602682 0
M  V30 7 C 0.935750 -1.184776 -4.074757 0
M  V30 8 O 1.272251 -2.188384 -3.300782 0
M  V30 9 C 1.741281 -1.462397 -0.131794 0
M  V30 10 N 2.673803 -1.481826 -1.126430 0
M  V30 11 C 3.409992 -0.411424 -1.428156 0
M  V30 12 N 3.226272 0.735029 -0.723348 0
M  V30 13 C 2.319039 0.813316 0.270792 0
M  V30 14 C 2.091320 1.950630 1.017847 0
M  V30 15 C 1.128051 1.939839 2.031448 0
M  V30 16 C 0.384074 0.792875 2.307454 0
M  V30 17 C -0.624226 0.781367 3.368064 0
M  V30 18 C -0.966398 -0.321024 4.128135 0
M  V30 19 C -1.934937 -0.220665 5.106187 0
M  V30 20 C -2.592729 0.987032 5.355323 0
M  V30 21 C -2.263744 2.109713 4.601722 0
M  V30 22 Cl -3.063106 3.650562 4.877722 0
M  V30 23 C -1.278994 1.976175 3.618768 0
M  V30 24 C 0.601461 -0.364928 1.562130 0
M  V30 25 C 1.559697 -0.293515 0.580783 0
M  V30 26 H 1.136057 -4.686132 0.766711 0
M  V30 27 H 1.704065 -3.413805 1.895169 0
M  V30 28 H -0.047907 -3.647498 1.591444 0
M  V30 29 H -0.732248 -3.394429 -0.893388 0
M  V30 30 H 0.745333 -4.203292 -1.415430 0
M  V30 31 H -1.383247 -0.985915 -1.819531 0
M  V30 32 H -0.736824 0.307676 -3.972192 0
M  V30 33 H 1.404295 -0.826071 -4.981093 0
M  V30 34 H 4.147921 -0.466309 -2.232855 0
M  V30 35 H 2.680734 2.827565 0.784945 0
M  V30 36 H 0.985653 2.840589 2.582945 0
M  V30 37 H -0.435263 -1.245642 3.908624 0
M  V30 38 H -2.178165 -1.109428 5.684808 0
M  V30 39 H -3.340986 1.061182 6.112034 0
M  V30 40 H -1.061915 2.884834 3.060330 0
M  V30 41 H 0.031213 -1.256423 1.768009 0
M  V30 END ATOM
M  V30 BEGIN BOND
M  V30 1 1 1 2
M  V30 2 1 2 3
M  V30 3 1 3 4
M  V30 4 2 4 5
M  V30 5 1 5 6
M  V30 6 2 6 7
M  V30 7 1 7 8
M  V30 8 1 2 9
M  V30 9 2 9 10
M  V30 10 1 10 11
M  V30 11 2 11 12
M  V30 12 1 12 13
M  V30 13 2 13 14
M  V30 14 1 14 15
M  V30 15 2 15 16
M  V30 16 1 16 17
M  V30 17 2 17 18
M  V30 18 1 18 19
M  V30 19 2 19 20
M  V30 20 1 20 21
M  V30 21 1 21 22
M  V30 22 2 21 23
M  V30 23 1 16 24
M  V30 24 2 24 25
M  V30 25 1 8 4
M  V30 26 1 25 9
M  V30 27 1 25 13
M  V30 28 1 23 17
M  V30 29 1 1 26
M  V30 30 1 1 27
M  V30 31 1 1 28
M  V30 32 1 3 29
M  V30 33 1 3 30
M  V30 34 1 5 31
M  V30 35 1 6 32
M  V30 36 1 7 33
M  V30 37 1 11 34
M  V30 38 1 14 35
M  V30 39 1 15 36
M  V30 40 1 18 37
M  V30 41 1 19 38
M  V30 42 1 20 39
M  V30 43 1 23 40
M  V30 44 1 24 41
M  V30 END BOND
M  V30 END CTAB
M  END
>  <Dataset>  (995) 
ChEMBL_Kinases

>  <Ligand_Instance>  (995) 
nan

>  <PDB_ID>  (995) 
nan

>  <Standardized_SMILES>  (995) 
CN(Cc1ccco1)c1ncnc2ccc(-c3cccc(Cl)c3)cc12

>  <Name>  (995) 
nan

>  <Pocket>  (995) 
nan

>  <ATP_Site>  (995) 
nan

>  <Peripheral>  (995) 
nan

>  <Num_H_Atoms_ProtBoundConf>  (995) 
nan

>  <Num_Resolved_Atoms>  (995) 
nan

>  <Num_Not_Resolved_Atoms>  (995) 
nan

$$$$
CHEMBL1507925
     RDKit          3D

  0  0  0  0  0  0  0  0  0  0999 V3000
M  V30 BEGIN CTAB
M  V30 COUNTS 45 47 0 0 0
M  V30 BEGIN ATOM
M  V30 1 C -5.117230 -4.649183 2.288952 0
M  V30 2 O -3.812762 -4.227922 2.394318 0
M  V30 3 C -3.653882 -2.860158 2.277733 0
M  V30 4 C -4.138297 -2.381274 0.950315 0
M  V30 5 C -3.970156 -0.887400 0.780993 0
M  V30 6 N -2.635181 -0.407316 0.878027 0
M  V30 7 C -1.532686 -0.750307 0.049939 0
M  V30 8 O -1.985028 -1.569445 -0.796022 0
M  V30 9 C -0.181222 -0.178459 0.260599 0
M  V30 10 C 0.034448 0.728926 1.307149 0
M  V30 11 C 1.370697 1.034542 1.194102 0
M  V30 12 C 2.110479 1.890291 1.983483 0
M  V30 13 O 1.600530 2.516775 2.948685 0
M  V30 14 N 3.413798 2.043823 1.693945 0
M  V30 15 C 4.198192 2.942448 2.519914 0
M  V30 16 C 3.972291 1.385634 0.671591 0
M  V30 17 C 5.316540 1.611513 0.457669 0
M  V30 18 C 5.896442 0.934025 -0.595534 0
M  V30 19 C 5.168356 0.065026 -1.405486 0
M  V30 20 C 3.813045 -0.113220 -1.128450 0
M  V30 21 C 3.194018 0.540405 -0.090566 0
M  V30 22 C 1.852245 0.314033 0.122602 0
M  V30 23 N 0.926385 -0.433412 -0.463966 0
M  V30 24 C 1.027390 -1.301600 -1.580735 0
M  V30 25 H -5.096359 -5.771473 2.417582 0
M  V30 26 H -5.715383 -4.233847 3.103502 0
M  V30 27 H -5.550520 -4.518593 1.272062 0
M  V30 28 H -2.546395 -2.668130 2.374413 0
M  V30 29 H -4.098268 -2.309059 3.134191 0
M  V30 30 H -3.586658 -2.896185 0.149868 0
M  V30 31 H -5.209725 -2.614897 0.772511 0
M  V30 32 H -4.616036 -0.426558 1.552105 0
M  V30 33 H -4.458594 -0.601968 -0.196058 0
M  V30 34 H -2.458750 0.291404 1.671250 0
M  V30 35 H -0.651036 1.110797 2.033596 0
M  V30 36 H 4.864903 2.360785 3.191062 0
M  V30 37 H 4.758305 3.705285 1.913209 0
M  V30 38 H 3.539929 3.549926 3.174063 0
M  V30 39 H 5.915318 2.265546 1.048690 0
M  V30 40 H 6.950181 1.100378 -0.776561 0
M  V30 41 H 5.709229 -0.422715 -2.209029 0
M  V30 42 H 3.371751 -0.787067 -1.800625 0
M  V30 43 H 1.618778 -2.227055 -1.440051 0
M  V30 44 H 1.211967 -0.784840 -2.570109 0
M  V30 45 H 0.007785 -1.742486 -1.814781 0
M  V30 END ATOM
M  V30 BEGIN BOND
M  V30 1 1 1 2
M  V30 2 1 2 3
M  V30 3 1 3 4
M  V30 4 1 4 5
M  V30 5 1 5 6
M  V30 6 1 6 7
M  V30 7 2 7 8
M  V30 8 1 7 9
M  V30 9 2 9 10
M  V30 10 1 10 11
M  V30 11 1 11 12
M  V30 12 2 12 13
M  V30 13 1 12 14
M  V30 14 1 14 15
M  V30 15 1 14 16
M  V30 16 2 16 17
M  V30 17 1 17 18
M  V30 18 2 18 19
M  V30 19 1 19 20
M  V30 20 2 20 21
M  V30 21 1 21 22
M  V30 22 1 22 23
M  V30 23 1 23 24
M  V30 24 1 23 9
M  V30 25 2 22 11
M  V30 26 1 21 16
M  V30 27 1 1 25
M  V30 28 1 1 26
M  V30 29 1 1 27
M  V30 30 1 3 28
M  V30 31 1 3 29
M  V30 32 1 4 30
M  V30 33 1 4 31
M  V30 34 1 5 32
M  V30 35 1 5 33
M  V30 36 1 6 34
M  V30 37 1 10 35
M  V30 38 1 15 36
M  V30 39 1 15 37
M  V30 40 1 15 38
M  V30 41 1 17 39
M  V30 42 1 18 40
M  V30 43 1 19 41
M  V30 44 1 20 42
M  V30 45 1 24 43
M  V30 46 1 24 44
M  V30 47 1 24 45
M  V30 END BOND
M  V30 END CTAB
M  END
>  <Dataset>  (996) 
ChEMBL_Kinases

>  <Ligand_Instance>  (996) 
nan

>  <PDB_ID>  (996) 
nan

>  <Standardized_SMILES>  (996) 
COCCCNC(=O)c1cc2c(=O)n(C)c3ccccc3c2n1C

>  <Name>  (996) 
nan

>  <Pocket>  (996) 
nan

>  <ATP_Site>  (996) 
nan

>  <Peripheral>  (996) 
nan

>  <Num_H_Atoms_ProtBoundConf>  (996) 
nan

>  <Num_Resolved_Atoms>  (996) 
nan

>  <Num_Not_Resolved_Atoms>  (996) 
nan

$$$$
CHEMBL1507838
     RDKit          3D

  0  0  0  0  0  0  0  0  0  0999 V3000
M  V30 BEGIN CTAB
M  V30 COUNTS 33 36 0 0 0
M  V30 BEGIN ATOM
M  V30 1 O 0.078383 -3.541913 2.049441 0
M  V30 2 C -0.133328 -2.387575 1.574327 0
M  V30 3 C -1.425886 -1.681007 1.813299 0
M  V30 4 N -1.241065 -0.479992 1.036686 0
M  V30 5 C 0.038596 -0.465020 0.484239 0
M  V30 6 C 0.735211 -1.548310 0.763074 0
M  V30 7 C 2.086468 -1.977880 0.440974 0
M  V30 8 C 2.248381 -3.303953 -0.002337 0
M  V30 9 C 3.457070 -3.845792 -0.325610 0
M  V30 10 C 4.611408 -3.080736 -0.225006 0
M  V30 11 C 4.522001 -1.761718 0.206338 0
M  V30 12 C 3.257030 -1.247933 0.528201 0
M  V30 13 N 0.446764 0.653720 -0.335257 0
M  V30 14 C -0.497549 1.691053 -0.537050 0
M  V30 15 O -0.229887 2.688237 -1.230405 0
M  V30 16 C -1.826529 1.642485 0.054690 0
M  V30 17 C -2.730977 2.696913 -0.179944 0
M  V30 18 C -3.996580 2.686144 0.358860 0
M  V30 19 C -4.273470 1.578475 1.122831 0
M  V30 20 C -3.489143 0.493136 1.425935 0
M  V30 21 C -2.203081 0.549151 0.849503 0
M  V30 22 H -1.589869 -1.446022 2.877266 0
M  V30 23 H -2.288032 -2.282465 1.459410 0
M  V30 24 H 1.417537 -3.991502 -0.121346 0
M  V30 25 H 3.669533 -4.841173 -0.669522 0
M  V30 26 H 5.626916 -3.399044 -0.454632 0
M  V30 27 H 5.350063 -1.067290 0.324683 0
M  V30 28 H 3.150335 -0.203833 0.881753 0
M  V30 29 H 1.383328 0.711478 -0.769213 0
M  V30 30 H -2.426720 3.528751 -0.793895 0
M  V30 31 H -4.742208 3.452593 0.223141 0
M  V30 32 H -5.279614 1.542485 1.575503 0
M  V30 33 H -3.764108 -0.343534 2.029168 0
M  V30 END ATOM
M  V30 BEGIN BOND
M  V30 1 2 1 2
M  V30 2 1 2 3
M  V30 3 1 3 4
M  V30 4 1 4 5
M  V30 5 2 5 6
M  V30 6 1 6 7
M  V30 7 2 7 8
M  V30 8 1 8 9
M  V30 9 2 9 10
M  V30 10 1 10 11
M  V30 11 2 11 12
M  V30 12 1 5 13
M  V30 13 1 13 14
M  V30 14 2 14 15
M  V30 15 1 14 16
M  V30 16 2 16 17
M  V30 17 1 17 18
M  V30 18 2 18 19
M  V30 19 1 19 20
M  V30 20 2 20 21
M  V30 21 1 6 2
M  V30 22 1 12 7
M  V30 23 1 21 16
M  V30 24 1 21 4
M  V30 25 1 3 22
M  V30 26 1 3 23
M  V30 27 1 8 24
M  V30 28 1 9 25
M  V30 29 1 10 26
M  V30 30 1 11 27
M  V30 31 1 12 28
M  V30 32 1 13 29
M  V30 33 1 17 30
M  V30 34 1 18 31
M  V30 35 1 19 32
M  V30 36 1 20 33
M  V30 END BOND
M  V30 END CTAB
M  END
>  <Dataset>  (997) 
ChEMBL_Kinases

>  <Ligand_Instance>  (997) 
nan

>  <PDB_ID>  (997) 
nan

>  <Standardized_SMILES>  (997) 
O=C1CN2C(=C1c1ccccc1)NC(=O)c1ccccc12

>  <Name>  (997) 
nan

>  <Pocket>  (997) 
nan

>  <ATP_Site>  (997) 
nan

>  <Peripheral>  (997) 
nan

>  <Num_H_Atoms_ProtBoundConf>  (997) 
nan

>  <Num_Resolved_Atoms>  (997) 
nan

>  <Num_Not_Resolved_Atoms>  (997) 
nan

$$$$
CHEMBL1507728
     RDKit          3D

  0  0  0  0  0  0  0  0  0  0999 V3000
M  V30 BEGIN CTAB
M  V30 COUNTS 58 61 0 0 0
M  V30 BEGIN ATOM
M  V30 1 C 0.630234 -1.286666 3.911042 0
M  V30 2 C 2.032705 -1.675005 3.412574 0
M  V30 3 C 2.146633 -3.154752 3.575634 0
M  V30 4 C 2.251544 -1.172090 2.054457 0
M  V30 5 C 3.157129 -0.141766 1.910116 0
M  V30 6 C 3.406229 0.375971 0.643145 0
M  V30 7 C 2.750041 -0.139539 -0.464810 0
M  V30 8 S 3.075205 0.535437 -2.054757 0
M  V30 9 O 4.466110 1.108666 -2.008872 0
M  V30 10 O 3.052693 -0.567834 -3.054980 0
M  V30 11 N 1.993440 1.765519 -2.473519 0
M  V30 12 C 1.990111 2.916887 -1.630957 0
M  V30 13 C 1.075912 2.817832 -0.455836 0
M  V30 14 N 0.127474 1.704050 -0.545497 0
M  V30 15 C -0.943547 1.859663 0.408497 0
M  V30 16 C -1.839531 0.724495 0.564759 0
M  V30 17 O -2.789315 0.939270 1.378442 0
M  V30 18 N -1.797808 -0.552787 -0.046754 0
M  V30 19 C -2.626508 -1.697007 0.048424 0
M  V30 20 C -3.680763 -1.804328 -0.857542 0
M  V30 21 C -4.572707 -2.864703 -0.887482 0
M  V30 22 C -4.320207 -3.836239 0.087432 0
M  V30 23 C -3.303623 -3.800454 1.013004 0
M  V30 24 C -2.472439 -2.715719 0.967276 0
M  V30 25 O -3.402901 -4.945383 1.789868 0
M  V30 26 C -4.433956 -5.786803 1.321021 0
M  V30 27 O -5.031777 -5.005386 0.308113 0
M  V30 28 C -0.383342 1.641921 -1.912345 0
M  V30 29 C 0.699346 1.326952 -2.895770 0
M  V30 30 C 1.849313 -1.174171 -0.271485 0
M  V30 31 C 1.580675 -1.709238 0.973628 0
M  V30 32 H -0.002389 -1.209601 3.004202 0
M  V30 33 H 0.239395 -2.058509 4.574891 0
M  V30 34 H 0.679299 -0.280921 4.376418 0
M  V30 35 H 2.751402 -1.164457 4.108804 0
M  V30 36 H 1.316710 -3.667338 3.028190 0
M  V30 37 H 1.931293 -3.364591 4.661650 0
M  V30 38 H 3.130380 -3.588402 3.388289 0
M  V30 39 H 3.696931 0.299570 2.729406 0
M  V30 40 H 4.110190 1.188221 0.476444 0
M  V30 41 H 1.633165 3.764802 -2.270887 0
M  V30 42 H 3.005793 3.229582 -1.309048 0
M  V30 43 H 0.482636 3.746231 -0.363550 0
M  V30 44 H 1.620639 2.670040 0.483017 0
M  V30 45 H -0.449708 2.137714 1.378826 0
M  V30 46 H -1.455009 2.820655 0.104448 0
M  V30 47 H -1.020625 -0.749555 -0.689572 0
M  V30 48 H -3.853625 -1.027324 -1.608314 0
M  V30 49 H -5.379446 -2.943489 -1.585069 0
M  V30 50 H -1.662343 -2.640230 1.668827 0
M  V30 51 H -5.145065 -5.897360 2.169220 0
M  V30 52 H -4.048582 -6.760645 0.956770 0
M  V30 53 H -0.661624 2.719188 -2.127387 0
M  V30 54 H -1.300849 1.087645 -2.058656 0
M  V30 55 H 0.495037 1.789954 -3.887234 0
M  V30 56 H 0.708922 0.230887 -3.052103 0
M  V30 57 H 1.361113 -1.542546 -1.174834 0
M  V30 58 H 0.874600 -2.514167 1.097695 0
M  V30 END ATOM
M  V30 BEGIN BOND
M  V30 1 1 1 2
M  V30 2 1 2 3
M  V30 3 1 2 4
M  V30 4 2 4 5
M  V30 5 1 5 6
M  V30 6 2 6 7
M  V30 7 1 7 8
M  V30 8 2 8 9
M  V30 9 2 8 10
M  V30 10 1 8 11
M  V30 11 1 11 12
M  V30 12 1 12 13
M  V30 13 1 13 14
M  V30 14 1 14 15
M  V30 15 1 15 16
M  V30 16 2 16 17
M  V30 17 1 16 18
M  V30 18 1 18 19
M  V30 19 2 19 20
M  V30 20 1 20 21
M  V30 21 2 21 22
M  V30 22 1 22 23
M  V30 23 2 23 24
M  V30 24 1 23 25
M  V30 25 1 25 26
M  V30 26 1 26 27
M  V30 27 1 14 28
M  V30 28 1 28 29
M  V30 29 1 7 30
M  V30 30 2 30 31
M  V30 31 1 31 4
M  V30 32 1 29 11
M  V30 33 1 24 19
M  V30 34 1 27 22
M  V30 35 1 1 32
M  V30 36 1 1 33
M  V30 37 1 1 34
M  V30 38 1 2 35
M  V30 39 1 3 36
M  V30 40 1 3 37
M  V30 41 1 3 38
M  V30 42 1 5 39
M  V30 43 1 6 40
M  V30 44 1 12 41
M  V30 45 1 12 42
M  V30 46 1 13 43
M  V30 47 1 13 44
M  V30 48 1 15 45
M  V30 49 1 15 46
M  V30 50 1 18 47
M  V30 51 1 20 48
M  V30 52 1 21 49
M  V30 53 1 24 50
M  V30 54 1 26 51
M  V30 55 1 26 52
M  V30 56 1 28 53
M  V30 57 1 28 54
M  V30 58 1 29 55
M  V30 59 1 29 56
M  V30 60 1 30 57
M  V30 61 1 31 58
M  V30 END BOND
M  V30 END CTAB
M  END
>  <Dataset>  (998) 
ChEMBL_Kinases

>  <Ligand_Instance>  (998) 
nan

>  <PDB_ID>  (998) 
nan

>  <Standardized_SMILES>  (998) 
CC(C)c1ccc(S(=O)(=O)N2CCN(CC(=O)Nc3ccc4c(c3)OCO4)CC2)cc1

>  <Name>  (998) 
nan

>  <Pocket>  (998) 
nan

>  <ATP_Site>  (998) 
nan

>  <Peripheral>  (998) 
nan

>  <Num_H_Atoms_ProtBoundConf>  (998) 
nan

>  <Num_Resolved_Atoms>  (998) 
nan

>  <Num_Not_Resolved_Atoms>  (998) 
nan

$$$$
CHEMBL1507610
     RDKit          3D

  0  0  0  0  0  0  0  0  0  0999 V3000
M  V30 BEGIN CTAB
M  V30 COUNTS 44 47 0 0 0
M  V30 BEGIN ATOM
M  V30 1 O 1.584432 0.262365 3.768432 0
M  V30 2 C 2.010196 0.691357 2.678370 0
M  V30 3 C 2.939073 1.870852 2.629813 0
M  V30 4 N 3.285483 2.166975 1.237217 0
M  V30 5 C 4.342546 1.628152 0.598028 0
M  V30 6 N 4.612890 1.937557 -0.684668 0
M  V30 7 C 3.826627 2.791262 -1.342747 0
M  V30 8 C 4.123449 3.094562 -2.659911 0
M  V30 9 C 3.321216 3.977503 -3.361087 0
M  V30 10 C 2.232077 4.537116 -2.713623 0
M  V30 11 C 1.908760 4.255439 -1.400746 0
M  V30 12 C 2.726148 3.371379 -0.725270 0
M  V30 13 C 2.469013 3.037617 0.593550 0
M  V30 14 O 1.466720 3.572050 1.140735 0
M  V30 15 O 1.632990 0.085790 1.487318 0
M  V30 16 C 0.780592 -1.012566 1.379088 0
M  V30 17 C -0.574621 -0.743067 1.943589 0
M  V30 18 O -0.940888 0.347352 2.468010 0
M  V30 19 C -1.561145 -1.811602 1.892347 0
M  V30 20 C -2.826330 -1.591866 2.407706 0
M  V30 21 C -3.733970 -2.631635 2.339835 0
M  V30 22 C -3.474270 -3.871809 1.797313 0
M  V30 23 C -2.199824 -4.069594 1.286792 0
M  V30 24 C -1.276253 -3.045399 1.343496 0
M  V30 25 O -1.913549 -5.291273 0.741894 0
M  V30 26 C -2.818327 -6.368246 0.613044 0
M  V30 27 C -4.054010 -6.223869 1.436033 0
M  V30 28 O -4.399072 -4.885555 1.744856 0
M  V30 29 H 2.471498 2.749407 3.114579 0
M  V30 30 H 3.875137 1.541305 3.105795 0
M  V30 31 H 4.933876 0.937106 1.215584 0
M  V30 32 H 4.964084 2.676682 -3.194812 0
M  V30 33 H 3.498233 4.257385 -4.394387 0
M  V30 34 H 1.597895 5.231703 -3.259435 0
M  V30 35 H 1.049191 4.710687 -0.923782 0
M  V30 36 H 1.222079 -1.942511 1.832939 0
M  V30 37 H 0.639133 -1.217049 0.297400 0
M  V30 38 H -3.144758 -0.677056 2.851521 0
M  V30 39 H -4.743687 -2.494673 2.737105 0
M  V30 40 H -0.279339 -3.190175 0.947778 0
M  V30 41 H -3.031433 -6.595114 -0.458999 0
M  V30 42 H -2.266603 -7.266580 0.986649 0
M  V30 43 H -4.933912 -6.723450 0.960647 0
M  V30 44 H -3.943461 -6.749334 2.419592 0
M  V30 END ATOM
M  V30 BEGIN BOND
M  V30 1 2 1 2
M  V30 2 1 2 3
M  V30 3 1 3 4
M  V30 4 1 4 5
M  V30 5 2 5 6
M  V30 6 1 6 7
M  V30 7 2 7 8
M  V30 8 1 8 9
M  V30 9 2 9 10
M  V30 10 1 10 11
M  V30 11 2 11 12
M  V30 12 1 12 13
M  V30 13 2 13 14
M  V30 14 1 2 15
M  V30 15 1 15 16
M  V30 16 1 16 17
M  V30 17 2 17 18
M  V30 18 1 17 19
M  V30 19 2 19 20
M  V30 20 1 20 21
M  V30 21 2 21 22
M  V30 22 1 22 23
M  V30 23 2 23 24
M  V30 24 1 23 25
M  V30 25 1 25 26
M  V30 26 1 26 27
M  V30 27 1 27 28
M  V30 28 1 13 4
M  V30 29 1 24 19
M  V30 30 1 12 7
M  V30 31 1 28 22
M  V30 32 1 3 29
M  V30 33 1 3 30
M  V30 34 1 5 31
M  V30 35 1 8 32
M  V30 36 1 9 33
M  V30 37 1 10 34
M  V30 38 1 11 35
M  V30 39 1 16 36
M  V30 40 1 16 37
M  V30 41 1 20 38
M  V30 42 1 21 39
M  V30 43 1 24 40
M  V30 44 1 26 41
M  V30 45 1 26 42
M  V30 46 1 27 43
M  V30 47 1 27 44
M  V30 END BOND
M  V30 END CTAB
M  END
>  <Dataset>  (999) 
ChEMBL_Kinases

>  <Ligand_Instance>  (999) 
nan

>  <PDB_ID>  (999) 
nan

>  <Standardized_SMILES>  (999) 
O=C(Cn1cnc2ccccc2c1=O)OCC(=O)c1ccc2c(c1)OCCO2

>  <Name>  (999) 
nan

>  <Pocket>  (999) 
nan

>  <ATP_Site>  (999) 
nan

>  <Peripheral>  (999) 
nan

>  <Num_H_Atoms_ProtBoundConf>  (999) 
nan

>  <Num_Resolved_Atoms>  (999) 
nan

>  <Num_Not_Resolved_Atoms>  (999) 
nan

$$$$
