CHEMBL1098319
     RDKit          3D

  0  0  0  0  0  0  0  0  0  0999 V3000
M  V30 BEGIN CTAB
M  V30 COUNTS 13 12 0 0 0
M  V30 BEGIN ATOM
M  V30 1 O 1.752947 -0.651175 3.379658 0
M  V30 2 S 1.106620 -1.053608 2.101643 0
M  V30 3 O 1.326791 -2.517912 1.772307 0
M  V30 4 O -0.555275 -0.870639 2.229193 0
M  V30 5 C 1.758980 -0.035021 0.796395 0
M  V30 6 C 1.153186 -0.392855 -0.545294 0
M  V30 7 S 1.910391 0.720850 -1.762320 0
M  V30 8 H -0.881052 -0.025779 1.821213 0
M  V30 9 H 1.429704 1.010058 1.046342 0
M  V30 10 H 2.846713 -0.128659 0.774577 0
M  V30 11 H 1.435372 -1.450825 -0.772414 0
M  V30 12 H 0.070869 -0.241722 -0.505170 0
M  V30 13 H 1.687421 0.210993 -3.035983 0
M  V30 END ATOM
M  V30 BEGIN BOND
M  V30 1 2 1 2
M  V30 2 2 2 3
M  V30 3 1 2 4
M  V30 4 1 2 5
M  V30 5 1 5 6
M  V30 6 1 6 7
M  V30 7 1 4 8
M  V30 8 1 5 9
M  V30 9 1 5 10
M  V30 10 1 6 11
M  V30 11 1 6 12
M  V30 12 1 7 13
M  V30 END BOND
M  V30 END CTAB
M  END
>  <Dataset>  (1) 
OralDrugs

>  <Ligand_Instance>  (1) 
nan

>  <PDB_ID>  (1) 
nan

>  <Standardized_SMILES>  (1) 
O=S(=O)(O)CCS

>  <Name>  (1) 
2-Mercaptoethanesulfonic Acid

>  <Pocket>  (1) 
nan

>  <ATP_Site>  (1) 
nan

>  <Peripheral>  (1) 
nan

>  <Num_H_Atoms_ProtBoundConf>  (1) 
nan

>  <Num_Resolved_Atoms>  (1) 
nan

>  <Num_Not_Resolved_Atoms>  (1) 
nan

$$$$
CHEMBL3301610
     RDKit          3D

  0  0  0  0  0  0  0  0  0  0999 V3000
M  V30 BEGIN CTAB
M  V30 COUNTS 69 73 0 0 0
M  V30 BEGIN ATOM
M  V30 1 C 3.204152 -2.583726 5.015570 0
M  V30 2 C 4.263011 -2.680761 3.934964 0
M  V30 3 N 3.606068 -2.944329 2.675078 0
M  V30 4 C 2.838064 -1.779273 2.287772 0
M  V30 5 C 2.782584 -1.779084 0.777158 0
M  V30 6 N 4.053788 -1.368141 0.285035 0
M  V30 7 C 4.330338 0.023514 0.295691 0
M  V30 8 C 3.323147 0.773595 -0.501591 0
M  V30 9 C 3.362534 1.050722 -1.852926 0
M  V30 10 C 2.345500 1.758985 -2.459161 0
M  V30 11 C 1.248548 2.224584 -1.764649 0
M  V30 12 N 0.174168 2.950266 -2.395009 0
M  V30 13 C -0.885224 3.367347 -1.505674 0
M  V30 14 N -1.220283 4.645349 -1.241238 0
M  V30 15 C -2.228156 4.903745 -0.369895 0
M  V30 16 C -2.920285 3.884376 0.254048 0
M  V30 17 F -3.926076 4.023639 1.126609 0
M  V30 18 C -2.575507 2.589175 -0.018266 0
M  V30 19 C -3.151448 1.341194 0.529240 0
M  V30 20 C -3.404851 1.289317 1.894830 0
M  V30 21 C -3.929475 0.111461 2.397786 0
M  V30 22 F -4.217499 -0.055248 3.714453 0
M  V30 23 C -4.180821 -0.954614 1.548666 0
M  V30 24 N -4.677953 -2.212633 1.731088 0
M  V30 25 C -4.709530 -2.842233 0.554897 0
M  V30 26 C -5.209312 -4.248784 0.443486 0
M  V30 27 N -4.238208 -2.028254 -0.438252 0
M  V30 28 C -4.136867 -2.394145 -1.837461 0
M  V30 29 C -5.426279 -2.011446 -2.580894 0
M  V30 30 C -2.922611 -1.885846 -2.530847 0
M  V30 31 C -3.924410 -0.887377 0.196414 0
M  V30 32 C -3.402242 0.279041 -0.316895 0
M  V30 33 N -1.560692 2.358358 -0.896817 0
M  V30 34 N 1.238258 1.940108 -0.450163 0
M  V30 35 C 2.201642 1.255398 0.185286 0
M  V30 36 C 5.073558 -2.207564 0.823510 0
M  V30 37 C 4.553260 -3.346427 1.679469 0
M  V30 38 H 2.285864 -3.108572 4.660924 0
M  V30 39 H 3.013679 -1.543243 5.343065 0
M  V30 40 H 3.553540 -3.135124 5.913790 0
M  V30 41 H 4.989547 -3.505904 4.159729 0
M  V30 42 H 4.776678 -1.699022 3.874719 0
M  V30 43 H 3.344634 -0.852355 2.619507 0
M  V30 44 H 1.828255 -1.746674 2.745901 0
M  V30 45 H 2.506311 -2.815533 0.413831 0
M  V30 46 H 1.918981 -1.157791 0.466757 0
M  V30 47 H 4.277315 0.399531 1.335805 0
M  V30 48 H 5.365809 0.238558 -0.045616 0
M  V30 49 H 4.224388 0.678409 -2.371164 0
M  V30 50 H 2.404601 1.961670 -3.526942 0
M  V30 51 H 0.259004 3.105363 -3.420861 0
M  V30 52 H -2.518778 5.916122 -0.138553 0
M  V30 53 H -3.219823 2.097513 2.567497 0
M  V30 54 H -5.316502 -4.573852 -0.592191 0
M  V30 55 H -6.120983 -4.326588 1.042423 0
M  V30 56 H -4.446699 -4.894857 0.958330 0
M  V30 57 H -4.091443 -3.504021 -1.884898 0
M  V30 58 H -6.099247 -2.902213 -2.707840 0
M  V30 59 H -6.004185 -1.314002 -1.921584 0
M  V30 60 H -5.206175 -1.590318 -3.577985 0
M  V30 61 H -2.512741 -2.657555 -3.249696 0
M  V30 62 H -3.210279 -1.049285 -3.233403 0
M  V30 63 H -2.076603 -1.647315 -1.880064 0
M  V30 64 H -3.175791 0.416165 -1.342292 0
M  V30 65 H 2.014966 1.129160 1.238166 0
M  V30 66 H 5.653618 -2.717766 -0.003451 0
M  V30 67 H 5.814410 -1.614236 1.406055 0
M  V30 68 H 4.174327 -4.191068 1.044976 0
M  V30 69 H 5.451264 -3.761263 2.218076 0
M  V30 END ATOM
M  V30 BEGIN BOND
M  V30 1 1 1 2
M  V30 2 1 2 3
M  V30 3 1 3 4
M  V30 4 1 4 5
M  V30 5 1 5 6
M  V30 6 1 6 7
M  V30 7 1 7 8
M  V30 8 2 8 9
M  V30 9 1 9 10
M  V30 10 2 10 11
M  V30 11 1 11 12
M  V30 12 1 12 13
M  V30 13 2 13 14
M  V30 14 1 14 15
M  V30 15 2 15 16
M  V30 16 1 16 17
M  V30 17 1 16 18
M  V30 18 1 18 19
M  V30 19 2 19 20
M  V30 20 1 20 21
M  V30 21 1 21 22
M  V30 22 2 21 23
M  V30 23 1 23 24
M  V30 24 2 24 25
M  V30 25 1 25 26
M  V30 26 1 25 27
M  V30 27 1 27 28
M  V30 28 1 28 29
M  V30 29 1 28 30
M  V30 30 1 27 31
M  V30 31 2 31 32
M  V30 32 2 18 33
M  V30 33 1 11 34
M  V30 34 2 34 35
M  V30 35 1 6 36
M  V30 36 1 36 37
M  V30 37 1 37 3
M  V30 38 1 35 8
M  V30 39 1 33 13
M  V30 40 1 32 19
M  V30 41 1 31 23
M  V30 42 1 1 38
M  V30 43 1 1 39
M  V30 44 1 1 40
M  V30 45 1 2 41
M  V30 46 1 2 42
M  V30 47 1 4 43
M  V30 48 1 4 44
M  V30 49 1 5 45
M  V30 50 1 5 46
M  V30 51 1 7 47
M  V30 52 1 7 48
M  V30 53 1 9 49
M  V30 54 1 10 50
M  V30 55 1 12 51
M  V30 56 1 15 52
M  V30 57 1 20 53
M  V30 58 1 26 54
M  V30 59 1 26 55
M  V30 60 1 26 56
M  V30 61 1 28 57
M  V30 62 1 29 58
M  V30 63 1 29 59
M  V30 64 1 29 60
M  V30 65 1 30 61
M  V30 66 1 30 62
M  V30 67 1 30 63
M  V30 68 1 32 64
M  V30 69 1 35 65
M  V30 70 1 36 66
M  V30 71 1 36 67
M  V30 72 1 37 68
M  V30 73 1 37 69
M  V30 END BOND
M  V30 END CTAB
M  END
>  <Dataset>  (2) 
OralDrugs

>  <Ligand_Instance>  (2) 
nan

>  <PDB_ID>  (2) 
nan

>  <Standardized_SMILES>  (2) 
CCN1CCN(Cc2ccc(Nc3ncc(F)c(-c4cc(F)c5nc(C)n(C(C)C)c5c4)n3)nc2)CC1

>  <Name>  (2) 
Abemaciclib

>  <Pocket>  (2) 
nan

>  <ATP_Site>  (2) 
nan

>  <Peripheral>  (2) 
nan

>  <Num_H_Atoms_ProtBoundConf>  (2) 
nan

>  <Num_Resolved_Atoms>  (2) 
nan

>  <Num_Not_Resolved_Atoms>  (2) 
nan

$$$$
CHEMBL3655081
     RDKit          3D

  0  0  0  0  0  0  0  0  0  0999 V3000
M  V30 BEGIN CTAB
M  V30 COUNTS 43 45 0 0 0
M  V30 BEGIN ATOM
M  V30 1 C -0.004856 -5.151129 2.514559 0
M  V30 2 C 0.265508 -4.666714 1.119688 0
M  V30 3 C 1.755248 -4.473437 0.928385 0
M  V30 4 S 1.982980 -3.897403 -0.754994 0
M  V30 5 O 3.464257 -3.692749 -0.923945 0
M  V30 6 O 1.521326 -4.912939 -1.741737 0
M  V30 7 N 1.105034 -2.401767 -0.901063 0
M  V30 8 C 1.680706 -1.479749 0.022523 0 CFG=1
M  V30 9 C 1.940590 -0.067037 -0.524894 0
M  V30 10 C 1.637216 0.381013 0.880757 0 CFG=1
M  V30 11 N 1.085146 1.694158 1.057183 0
M  V30 12 C 2.115850 2.610109 0.565204 0
M  V30 13 C -0.090394 2.348656 1.523866 0
M  V30 14 N 0.160087 3.042700 2.672498 0
M  V30 15 C -0.840338 3.720343 3.281684 0
M  V30 16 N -2.077268 3.725883 2.780782 0
M  V30 17 C -2.364515 3.056060 1.652679 0
M  V30 18 N -3.449009 2.843828 0.876712 0
M  V30 19 C -3.144338 2.056327 -0.191285 0
M  V30 20 C -1.791856 1.724814 -0.128380 0
M  V30 21 C -1.367463 2.357076 1.009877 0
M  V30 22 C 0.691799 -0.786491 0.974571 0
M  V30 23 H -0.811913 -5.936829 2.512792 0
M  V30 24 H -0.357198 -4.307823 3.128169 0
M  V30 25 H 0.927501 -5.527866 3.007784 0
M  V30 26 H -0.079566 -5.393591 0.347150 0
M  V30 27 H -0.264364 -3.713016 0.955384 0
M  V30 28 H 2.292092 -5.414130 1.057841 0
M  V30 29 H 2.152507 -3.682462 1.583389 0
M  V30 30 H 1.193799 -2.051738 -1.891855 0
M  V30 31 H 2.531728 -1.825259 0.644565 0
M  V30 32 H 1.156116 0.221698 -1.252510 0
M  V30 33 H 2.971407 0.008352 -0.871715 0
M  V30 34 H 2.517837 0.170000 1.536054 0
M  V30 35 H 1.839031 3.672231 0.652137 0
M  V30 36 H 2.441707 2.364406 -0.466806 0
M  V30 37 H 2.979828 2.490215 1.281441 0
M  V30 38 H -0.737934 4.296970 4.192696 0
M  V30 39 H -4.387142 3.269301 1.130093 0
M  V30 40 H -3.831237 1.736752 -0.964002 0
M  V30 41 H -1.220581 1.122774 -0.809003 0
M  V30 42 H 0.638363 -1.269776 1.968564 0
M  V30 43 H -0.252725 -0.641141 0.451951 0
M  V30 END ATOM
M  V30 BEGIN BOND
M  V30 1 1 1 2
M  V30 2 1 2 3
M  V30 3 1 3 4
M  V30 4 2 4 5
M  V30 5 2 4 6
M  V30 6 1 4 7
M  V30 7 1 7 8
M  V30 8 1 8 9
M  V30 9 1 9 10
M  V30 10 1 10 11
M  V30 11 1 11 12
M  V30 12 1 11 13
M  V30 13 2 13 14
M  V30 14 1 14 15
M  V30 15 2 15 16
M  V30 16 1 16 17
M  V30 17 1 17 18
M  V30 18 1 18 19
M  V30 19 2 19 20
M  V30 20 1 20 21
M  V30 21 1 10 22
M  V30 22 1 22 8
M  V30 23 1 21 13
M  V30 24 2 21 17
M  V30 25 1 1 23
M  V30 26 1 1 24
M  V30 27 1 1 25
M  V30 28 1 2 26
M  V30 29 1 2 27
M  V30 30 1 3 28
M  V30 31 1 3 29
M  V30 32 1 7 30
M  V30 33 1 8 31 CFG=1
M  V30 34 1 9 32
M  V30 35 1 9 33
M  V30 36 1 10 34 CFG=1
M  V30 37 1 12 35
M  V30 38 1 12 36
M  V30 39 1 12 37
M  V30 40 1 15 38
M  V30 41 1 18 39
M  V30 42 1 19 40
M  V30 43 1 20 41
M  V30 44 1 22 42
M  V30 45 1 22 43
M  V30 END BOND
M  V30 END CTAB
M  END
>  <Dataset>  (3) 
OralDrugs

>  <Ligand_Instance>  (3) 
nan

>  <PDB_ID>  (3) 
nan

>  <Standardized_SMILES>  (3) 
CCCS(=O)(=O)N[C@H]1C[C@@H](N(C)c2ncnc3[nH]ccc23)C1

>  <Name>  (3) 
Abrocitinib

>  <Pocket>  (3) 
nan

>  <ATP_Site>  (3) 
nan

>  <Peripheral>  (3) 
nan

>  <Num_H_Atoms_ProtBoundConf>  (3) 
nan

>  <Num_Resolved_Atoms>  (3) 
nan

>  <Num_Not_Resolved_Atoms>  (3) 
nan

$$$$
CHEMBL3707348
     RDKit          3D

  0  0  0  0  0  0  0  0  0  0999 V3000
M  V30 BEGIN CTAB
M  V30 COUNTS 58 62 0 0 0
M  V30 BEGIN ATOM
M  V30 1 C 4.100130 -0.764985 6.496960 0
M  V30 2 C 3.990540 0.101268 5.308727 0
M  V30 3 C 3.892654 0.803199 4.312971 0
M  V30 4 C 3.758646 1.613567 3.135222 0
M  V30 5 O 3.591438 2.862128 3.283787 0
M  V30 6 N 3.813850 1.019145 1.844094 0
M  V30 7 C 4.003160 -0.409314 1.577037 0
M  V30 8 C 4.458504 -0.517357 0.158067 0
M  V30 9 C 4.443362 0.877269 -0.374796 0
M  V30 10 C 3.688814 1.753873 0.594946 0 CFG=1
M  V30 11 C 2.252343 1.818483 0.203248 0
M  V30 12 N 1.429695 0.755881 0.254522 0
M  V30 13 C 0.178895 1.119598 -0.163105 0
M  V30 14 C -0.875056 0.120121 -0.196204 0
M  V30 15 C -2.144332 0.168141 0.299925 0
M  V30 16 C -3.038344 -0.874701 0.165202 0
M  V30 17 C -2.670059 -2.030710 -0.491652 0
M  V30 18 C -3.663760 -3.098028 -0.600260 0
M  V30 19 O -4.796687 -2.901680 -0.089037 0
M  V30 20 N -3.420917 -4.334061 -1.246358 0
M  V30 21 C -4.500569 -5.263230 -1.260826 0
M  V30 22 C -4.638854 -6.186364 -0.223922 0
M  V30 23 C -5.623649 -7.131372 -0.111250 0
M  V30 24 C -6.562789 -7.149030 -1.145174 0
M  V30 25 C -6.441576 -6.235856 -2.188419 0
M  V30 26 N -5.446199 -5.329706 -2.238976 0
M  V30 27 C -1.401540 -2.156731 -1.021834 0
M  V30 28 C -0.553486 -1.080025 -0.855073 0
M  V30 29 C 0.315659 2.459034 -0.463801 0
M  V30 30 C -0.669885 3.273304 -0.932124 0
M  V30 31 N -1.981568 2.857109 -1.186323 0
M  V30 32 N -0.354540 4.564361 -1.178331 0
M  V30 33 C 0.896931 5.000504 -0.959386 0
M  V30 34 C 1.895256 4.153893 -0.480338 0
M  V30 35 N 1.575132 2.867680 -0.236796 0
M  V30 36 H 4.305631 -0.114358 7.378515 0
M  V30 37 H 4.919750 -1.506289 6.388323 0
M  V30 38 H 3.164568 -1.334017 6.670928 0
M  V30 39 H 3.057508 -0.968378 1.698376 0
M  V30 40 H 4.780164 -0.816244 2.250205 0
M  V30 41 H 5.477597 -0.984882 0.097241 0
M  V30 42 H 3.798093 -1.212102 -0.437070 0
M  V30 43 H 5.461971 1.259089 -0.585699 0
M  V30 44 H 3.854533 0.865804 -1.333661 0
M  V30 45 H 4.105661 2.775490 0.655168 0
M  V30 46 H -2.418385 1.057667 0.816389 0
M  V30 47 H -4.028168 -0.747075 0.592102 0
M  V30 48 H -2.488187 -4.516689 -1.676645 0
M  V30 49 H -3.883794 -6.144179 0.571167 0
M  V30 50 H -5.633988 -7.799728 0.740541 0
M  V30 51 H -7.358448 -7.886279 -1.088073 0
M  V30 52 H -7.181617 -6.269774 -2.977327 0
M  V30 53 H -1.093951 -3.038617 -1.532588 0
M  V30 54 H 0.449512 -1.216698 -1.290926 0
M  V30 55 H -2.863702 3.124249 -0.662120 0
M  V30 56 H -2.306285 2.205783 -1.946009 0
M  V30 57 H 1.214317 6.028085 -1.137513 0
M  V30 58 H 2.910628 4.475884 -0.294781 0
M  V30 END ATOM
M  V30 BEGIN BOND
M  V30 1 1 1 2
M  V30 2 3 2 3
M  V30 3 1 3 4
M  V30 4 2 4 5
M  V30 5 1 4 6
M  V30 6 1 6 7
M  V30 7 1 7 8
M  V30 8 1 8 9
M  V30 9 1 9 10
M  V30 10 1 10 11
M  V30 11 2 11 12
M  V30 12 1 12 13
M  V30 13 1 13 14
M  V30 14 2 14 15
M  V30 15 1 15 16
M  V30 16 2 16 17
M  V30 17 1 17 18
M  V30 18 2 18 19
M  V30 19 1 18 20
M  V30 20 1 20 21
M  V30 21 2 21 22
M  V30 22 1 22 23
M  V30 23 2 23 24
M  V30 24 1 24 25
M  V30 25 2 25 26
M  V30 26 1 17 27
M  V30 27 2 27 28
M  V30 28 2 13 29
M  V30 29 1 29 30
M  V30 30 1 30 31
M  V30 31 2 30 32
M  V30 32 1 32 33
M  V30 33 2 33 34
M  V30 34 1 34 35
M  V30 35 1 10 6
M  V30 36 1 35 11
M  V30 37 1 28 14
M  V30 38 1 35 29
M  V30 39 1 26 21
M  V30 40 1 1 36
M  V30 41 1 1 37
M  V30 42 1 1 38
M  V30 43 1 7 39
M  V30 44 1 7 40
M  V30 45 1 8 41
M  V30 46 1 8 42
M  V30 47 1 9 43
M  V30 48 1 9 44
M  V30 49 1 10 45 CFG=1
M  V30 50 1 15 46
M  V30 51 1 16 47
M  V30 52 1 20 48
M  V30 53 1 22 49
M  V30 54 1 23 50
M  V30 55 1 24 51
M  V30 56 1 25 52
M  V30 57 1 27 53
M  V30 58 1 28 54
M  V30 59 1 31 55
M  V30 60 1 31 56
M  V30 61 1 33 57
M  V30 62 1 34 58
M  V30 END BOND
M  V30 END CTAB
M  END
>  <Dataset>  (4) 
OralDrugs

>  <Ligand_Instance>  (4) 
nan

>  <PDB_ID>  (4) 
nan

>  <Standardized_SMILES>  (4) 
CC#CC(=O)N1CCC[C@H]1c1nc(-c2ccc(C(=O)Nc3ccccn3)cc2)c2c(N)nccn12

>  <Name>  (4) 
Acalabrutinib

>  <Pocket>  (4) 
nan

>  <ATP_Site>  (4) 
nan

>  <Peripheral>  (4) 
nan

>  <Num_H_Atoms_ProtBoundConf>  (4) 
nan

>  <Num_Resolved_Atoms>  (4) 
nan

>  <Num_Not_Resolved_Atoms>  (4) 
nan

$$$$
CHEMBL1201293
     RDKit          3D

  0  0  0  0  0  0  0  0  0  0999 V3000
M  V30 BEGIN CTAB
M  V30 COUNTS 22 21 0 0 0
M  V30 BEGIN ATOM
M  V30 1 C 0.286120 1.771969 3.901137 0
M  V30 2 C 0.724900 0.619991 3.061035 0
M  V30 3 O 1.639188 0.098416 3.785927 0
M  V30 4 N 0.274375 0.165658 1.766596 0
M  V30 5 C 1.043034 -0.987961 1.433823 0
M  V30 6 C 0.666811 -1.533157 0.121932 0
M  V30 7 C 0.816644 -0.795031 -1.115018 0
M  V30 8 S 0.066667 0.707121 -1.440424 0
M  V30 9 O 0.286346 1.066762 -2.925394 0
M  V30 10 O 0.489247 1.914157 -0.718919 0
M  V30 11 O -1.621874 0.610918 -1.337571 0
M  V30 12 H -0.119795 1.461933 4.884285 0
M  V30 13 H -0.552338 2.292449 3.393588 0
M  V30 14 H 1.096407 2.513538 3.970030 0
M  V30 15 H -0.466893 0.857131 1.542935 0
M  V30 16 H 0.754506 -1.765036 2.194931 0
M  V30 17 H 2.130826 -0.865716 1.602219 0
M  V30 18 H 1.189151 -2.542246 0.057854 0
M  V30 19 H -0.413839 -1.875009 0.252414 0
M  V30 20 H 0.540184 -1.495397 -1.968481 0
M  V30 21 H 1.932933 -0.680280 -1.311656 0
M  V30 22 H -1.876074 -0.047793 -0.634984 0
M  V30 END ATOM
M  V30 BEGIN BOND
M  V30 1 1 1 2
M  V30 2 2 2 3
M  V30 3 1 2 4
M  V30 4 1 4 5
M  V30 5 1 5 6
M  V30 6 1 6 7
M  V30 7 1 7 8
M  V30 8 2 8 9
M  V30 9 2 8 10
M  V30 10 1 8 11
M  V30 11 1 1 12
M  V30 12 1 1 13
M  V30 13 1 1 14
M  V30 14 1 4 15
M  V30 15 1 5 16
M  V30 16 1 5 17
M  V30 17 1 6 18
M  V30 18 1 6 19
M  V30 19 1 7 20
M  V30 20 1 7 21
M  V30 21 1 11 22
M  V30 END BOND
M  V30 END CTAB
M  END
>  <Dataset>  (5) 
OralDrugs

>  <Ligand_Instance>  (5) 
nan

>  <PDB_ID>  (5) 
nan

>  <Standardized_SMILES>  (5) 
CC(=O)NCCCS(=O)(=O)O

>  <Name>  (5) 
Acamprosate

>  <Pocket>  (5) 
nan

>  <ATP_Site>  (5) 
nan

>  <Peripheral>  (5) 
nan

>  <Num_H_Atoms_ProtBoundConf>  (5) 
nan

>  <Num_Resolved_Atoms>  (5) 
nan

>  <Num_Not_Resolved_Atoms>  (5) 
nan

$$$$
CHEMBL642
     RDKit          3D

  0  0  0  0  0  0  0  0  0  0999 V3000
M  V30 BEGIN CTAB
M  V30 COUNTS 52 52 0 0 0
M  V30 BEGIN ATOM
M  V30 1 C 1.238519 -8.002928 1.335747 0
M  V30 2 C 1.200972 -6.540956 1.059923 0
M  V30 3 C 1.818835 -6.199919 -0.303635 0
M  V30 4 C 1.703648 -4.723192 -0.423472 0
M  V30 5 O 1.128051 -4.419622 0.673275 0
M  V30 6 N 2.085722 -3.791554 -1.422828 0
M  V30 7 C 1.692067 -2.500912 -0.933540 0
M  V30 8 C 2.618989 -1.821952 -0.169025 0
M  V30 9 C 2.178792 -0.587087 0.271387 0
M  V30 10 C 0.909552 -0.082509 -0.035457 0
M  V30 11 O 0.527961 1.167982 0.439947 0
M  V30 12 C 1.413590 1.908843 1.215849 0
M  V30 13 C 0.930416 3.238206 1.690114 0
M  V30 14 O 0.590098 4.089012 0.650935 0
M  V30 15 C -0.132855 3.114195 2.760372 0
M  V30 16 N -1.374210 2.631263 2.332440 0
M  V30 17 C -2.215580 3.347196 1.493633 0
M  V30 18 C -2.690863 4.689878 1.917861 0
M  V30 19 C -3.492208 2.504136 1.318927 0
M  V30 20 C 0.042557 -0.841948 -0.814910 0
M  V30 21 C -1.266733 -0.302774 -1.127879 0
M  V30 22 C -2.211658 -1.115320 -1.968251 0
M  V30 23 O -1.544319 0.834016 -0.671388 0
M  V30 24 C 0.424020 -2.082879 -1.284646 0
M  V30 25 H 1.716403 -8.164316 2.330198 0
M  V30 26 H 0.211623 -8.417460 1.397021 0
M  V30 27 H 1.763140 -8.529539 0.534623 0
M  V30 28 H 1.617889 -5.923701 1.873143 0
M  V30 29 H 0.131556 -6.197818 0.952414 0
M  V30 30 H 2.883205 -6.486972 -0.340032 0
M  V30 31 H 1.204019 -6.745776 -1.055094 0
M  V30 32 H 2.530852 -4.301221 -2.203450 0
M  V30 33 H 3.574405 -2.249554 0.037761 0
M  V30 34 H 2.885888 -0.009789 0.885923 0
M  V30 35 H 2.376434 1.992871 0.664184 0
M  V30 36 H 1.675489 1.299083 2.127613 0
M  V30 37 H 1.854029 3.729218 2.138724 0
M  V30 38 H 0.194000 4.914069 1.030744 0
M  V30 39 H 0.279766 2.314452 3.450232 0
M  V30 40 H -0.163880 3.998687 3.435747 0
M  V30 41 H -1.687176 1.702729 2.646751 0
M  V30 42 H -1.781604 3.420506 0.475966 0
M  V30 43 H -1.915485 5.447981 2.049020 0
M  V30 44 H -3.379000 5.100763 1.150226 0
M  V30 45 H -3.268247 4.654455 2.864228 0
M  V30 46 H -3.217879 1.430994 1.419817 0
M  V30 47 H -4.203687 2.686089 2.169370 0
M  V30 48 H -3.952954 2.644595 0.337974 0
M  V30 49 H -1.781819 -1.275354 -2.987762 0
M  V30 50 H -3.194530 -0.634820 -2.040290 0
M  V30 51 H -2.348488 -2.106654 -1.478122 0
M  V30 52 H -0.214967 -2.701235 -1.888616 0
M  V30 END ATOM
M  V30 BEGIN BOND
M  V30 1 1 1 2
M  V30 2 1 2 3
M  V30 3 1 3 4
M  V30 4 2 4 5
M  V30 5 1 4 6
M  V30 6 1 6 7
M  V30 7 2 7 8
M  V30 8 1 8 9
M  V30 9 2 9 10
M  V30 10 1 10 11
M  V30 11 1 11 12
M  V30 12 1 12 13
M  V30 13 1 13 14
M  V30 14 1 13 15
M  V30 15 1 15 16
M  V30 16 1 16 17
M  V30 17 1 17 18
M  V30 18 1 17 19
M  V30 19 1 10 20
M  V30 20 1 20 21
M  V30 21 1 21 22
M  V30 22 2 21 23
M  V30 23 2 20 24
M  V30 24 1 24 7
M  V30 25 1 1 25
M  V30 26 1 1 26
M  V30 27 1 1 27
M  V30 28 1 2 28
M  V30 29 1 2 29
M  V30 30 1 3 30
M  V30 31 1 3 31
M  V30 32 1 6 32
M  V30 33 1 8 33
M  V30 34 1 9 34
M  V30 35 1 12 35
M  V30 36 1 12 36
M  V30 37 1 13 37
M  V30 38 1 14 38
M  V30 39 1 15 39
M  V30 40 1 15 40
M  V30 41 1 16 41
M  V30 42 1 17 42
M  V30 43 1 18 43
M  V30 44 1 18 44
M  V30 45 1 18 45
M  V30 46 1 19 46
M  V30 47 1 19 47
M  V30 48 1 19 48
M  V30 49 1 22 49
M  V30 50 1 22 50
M  V30 51 1 22 51
M  V30 52 1 24 52
M  V30 END BOND
M  V30 END CTAB
M  END
>  <Dataset>  (6) 
OralDrugs

>  <Ligand_Instance>  (6) 
nan

>  <PDB_ID>  (6) 
nan

>  <Standardized_SMILES>  (6) 
CCCC(=O)Nc1ccc(OCC(O)CNC(C)C)c(C(C)=O)c1

>  <Name>  (6) 
Acebutolol

>  <Pocket>  (6) 
nan

>  <ATP_Site>  (6) 
nan

>  <Peripheral>  (6) 
nan

>  <Num_H_Atoms_ProtBoundConf>  (6) 
nan

>  <Num_Resolved_Atoms>  (6) 
nan

>  <Num_Not_Resolved_Atoms>  (6) 
nan

$$$$
CHEMBL112
     RDKit          3D

  0  0  0  0  0  0  0  0  0  0999 V3000
M  V30 BEGIN CTAB
M  V30 COUNTS 20 20 0 0 0
M  V30 BEGIN ATOM
M  V30 1 C -0.666599 1.327894 3.859651 0
M  V30 2 C -0.112722 0.374376 2.865710 0
M  V30 3 O 0.292816 -0.738854 3.287459 0
M  V30 4 N -0.058035 0.742737 1.486733 0
M  V30 5 C 0.431198 -0.019594 0.387517 0
M  V30 6 C 1.786002 0.143224 0.098501 0
M  V30 7 C 2.320653 -0.582459 -0.972634 0
M  V30 8 C 1.544235 -1.422449 -1.711694 0
M  V30 9 O 2.209099 -2.076665 -2.742969 0
M  V30 10 C 0.212621 -1.561059 -1.401684 0
M  V30 11 C -0.368006 -0.871633 -0.357959 0
M  V30 12 H -1.468344 0.839843 4.472651 0
M  V30 13 H -1.150490 2.200595 3.399175 0
M  V30 14 H 0.137034 1.744897 4.522908 0
M  V30 15 H -0.407965 1.690544 1.158313 0
M  V30 16 H 2.407438 0.819388 0.694651 0
M  V30 17 H 3.381582 -0.413197 -1.148352 0
M  V30 18 H 2.848047 -1.651489 -3.376925 0
M  V30 19 H -0.367288 -2.241642 -2.018140 0
M  V30 20 H -1.411181 -0.975575 -0.109476 0
M  V30 END ATOM
M  V30 BEGIN BOND
M  V30 1 1 1 2
M  V30 2 2 2 3
M  V30 3 1 2 4
M  V30 4 1 4 5
M  V30 5 2 5 6
M  V30 6 1 6 7
M  V30 7 2 7 8
M  V30 8 1 8 9
M  V30 9 1 8 10
M  V30 10 2 10 11
M  V30 11 1 11 5
M  V30 12 1 1 12
M  V30 13 1 1 13
M  V30 14 1 1 14
M  V30 15 1 4 15
M  V30 16 1 6 16
M  V30 17 1 7 17
M  V30 18 1 9 18
M  V30 19 1 10 19
M  V30 20 1 11 20
M  V30 END BOND
M  V30 END CTAB
M  END
>  <Dataset>  (7) 
OralDrugs

>  <Ligand_Instance>  (7) 
nan

>  <PDB_ID>  (7) 
nan

>  <Standardized_SMILES>  (7) 
CC(=O)Nc1ccc(O)cc1

>  <Name>  (7) 
Acetaminophen

>  <Pocket>  (7) 
nan

>  <ATP_Site>  (7) 
nan

>  <Peripheral>  (7) 
nan

>  <Num_H_Atoms_ProtBoundConf>  (7) 
nan

>  <Num_Resolved_Atoms>  (7) 
nan

>  <Num_Not_Resolved_Atoms>  (7) 
nan

$$$$
CHEMBL20
     RDKit          3D

  0  0  0  0  0  0  0  0  0  0999 V3000
M  V30 BEGIN CTAB
M  V30 COUNTS 19 19 0 0 0
M  V30 BEGIN ATOM
M  V30 1 C 1.186719 0.316475 5.097350 0
M  V30 2 C 1.094734 -0.009380 3.635281 0
M  V30 3 O 0.446720 -1.067153 3.411610 0
M  V30 4 N 1.696475 0.826436 2.651050 0
M  V30 5 C 1.565051 0.447188 1.264821 0
M  V30 6 N 2.198519 -0.205854 0.555148 0
M  V30 7 N 1.948351 -0.460685 -0.692113 0
M  V30 8 C 1.044931 -0.073465 -1.301049 0
M  V30 9 S 0.261390 -0.091151 -2.888380 0
M  V30 10 N -0.821637 -1.435458 -2.879009 0
M  V30 11 O 1.268250 -0.159105 -3.978602 0
M  V30 12 O -0.574099 1.138010 -3.112712 0
M  V30 13 S 0.170585 0.948690 0.038338 0
M  V30 14 H 0.184648 0.649040 5.464200 0
M  V30 15 H 1.911315 1.141207 5.197021 0
M  V30 16 H 1.490870 -0.564134 5.696589 0
M  V30 17 H 2.203227 1.678667 3.029802 0
M  V30 18 H -0.255710 -2.279307 -3.138800 0
M  V30 19 H -1.221841 -1.508394 -1.919616 0
M  V30 END ATOM
M  V30 BEGIN BOND
M  V30 1 1 1 2
M  V30 2 2 2 3
M  V30 3 1 2 4
M  V30 4 1 4 5
M  V30 5 2 5 6
M  V30 6 1 6 7
M  V30 7 2 7 8
M  V30 8 1 8 9
M  V30 9 1 9 10
M  V30 10 2 9 11
M  V30 11 2 9 12
M  V30 12 1 8 13
M  V30 13 1 13 5
M  V30 14 1 1 14
M  V30 15 1 1 15
M  V30 16 1 1 16
M  V30 17 1 4 17
M  V30 18 1 10 18
M  V30 19 1 10 19
M  V30 END BOND
M  V30 END CTAB
M  END
>  <Dataset>  (8) 
OralDrugs

>  <Ligand_Instance>  (8) 
nan

>  <PDB_ID>  (8) 
nan

>  <Standardized_SMILES>  (8) 
CC(=O)Nc1nnc(S(N)(=O)=O)s1

>  <Name>  (8) 
Acetazolamide

>  <Pocket>  (8) 
nan

>  <ATP_Site>  (8) 
nan

>  <Peripheral>  (8) 
nan

>  <Num_H_Atoms_ProtBoundConf>  (8) 
nan

>  <Num_Resolved_Atoms>  (8) 
nan

>  <Num_Not_Resolved_Atoms>  (8) 
nan

$$$$
CHEMBL1589
     RDKit          3D

  0  0  0  0  0  0  0  0  0  0999 V3000
M  V30 BEGIN CTAB
M  V30 COUNTS 42 43 0 0 0
M  V30 BEGIN ATOM
M  V30 1 C 3.842749 -5.804141 -1.807162 0
M  V30 2 C 4.078289 -5.197156 -0.473364 0
M  V30 3 O 4.530395 -6.033501 0.358893 0
M  V30 4 C 3.816927 -3.785588 -0.153336 0
M  V30 5 C 3.325546 -2.858257 -1.040250 0
M  V30 6 C 3.108755 -1.544936 -0.652506 0
M  V30 7 C 3.385726 -1.152169 0.636134 0
M  V30 8 S 3.105780 0.526572 1.117870 0
M  V30 9 O 4.047163 0.793009 2.256880 0
M  V30 10 O 3.367873 1.435923 -0.031363 0
M  V30 11 N 1.493430 0.695333 1.715299 0
M  V30 12 C 0.373612 1.027310 0.876039 0
M  V30 13 O 0.691577 1.179608 -0.326552 0
M  V30 14 N -0.945059 1.160226 1.395048 0
M  V30 15 C -1.975975 1.494575 0.454221 0
M  V30 16 C -3.118777 0.531485 0.385487 0
M  V30 17 C -3.945117 0.456509 1.614294 0
M  V30 18 C -3.713543 1.473553 2.662272 0
M  V30 19 C -3.111856 2.762181 2.253278 0
M  V30 20 C -2.567515 2.827487 0.871513 0
M  V30 21 C 3.882027 -2.080393 1.539325 0
M  V30 22 C 4.097625 -3.402367 1.140053 0
M  V30 23 H 4.769464 -6.357965 -2.093288 0
M  V30 24 H 2.960862 -6.482654 -1.699222 0
M  V30 25 H 3.693556 -5.061655 -2.613415 0
M  V30 26 H 3.114191 -3.188681 -2.050222 0
M  V30 27 H 2.728378 -0.817321 -1.330280 0
M  V30 28 H 1.305839 0.549688 2.750411 0
M  V30 29 H -1.011972 0.997670 2.411633 0
M  V30 30 H -1.523869 1.591310 -0.555530 0
M  V30 31 H -2.801538 -0.477263 0.001670 0
M  V30 32 H -3.776467 0.912078 -0.447735 0
M  V30 33 H -5.042849 0.410077 1.346611 0
M  V30 34 H -3.743577 -0.555917 2.071177 0
M  V30 35 H -3.128989 1.040282 3.528945 0
M  V30 36 H -4.709268 1.691428 3.156284 0
M  V30 37 H -3.826564 3.617831 2.418047 0
M  V30 38 H -2.252711 3.026923 2.938109 0
M  V30 39 H -1.830423 3.648872 0.777689 0
M  V30 40 H -3.420911 3.027739 0.182610 0
M  V30 41 H 4.109318 -1.797859 2.562436 0
M  V30 42 H 4.482792 -4.072392 1.883712 0
M  V30 END ATOM
M  V30 BEGIN BOND
M  V30 1 1 1 2
M  V30 2 2 2 3
M  V30 3 1 2 4
M  V30 4 2 4 5
M  V30 5 1 5 6
M  V30 6 2 6 7
M  V30 7 1 7 8
M  V30 8 2 8 9
M  V30 9 2 8 10
M  V30 10 1 8 11
M  V30 11 1 11 12
M  V30 12 2 12 13
M  V30 13 1 12 14
M  V30 14 1 14 15
M  V30 15 1 15 16
M  V30 16 1 16 17
M  V30 17 1 17 18
M  V30 18 1 18 19
M  V30 19 1 19 20
M  V30 20 1 7 21
M  V30 21 2 21 22
M  V30 22 1 22 4
M  V30 23 1 20 15
M  V30 24 1 1 23
M  V30 25 1 1 24
M  V30 26 1 1 25
M  V30 27 1 5 26
M  V30 28 1 6 27
M  V30 29 1 11 28
M  V30 30 1 14 29
M  V30 31 1 15 30
M  V30 32 1 16 31
M  V30 33 1 16 32
M  V30 34 1 17 33
M  V30 35 1 17 34
M  V30 36 1 18 35
M  V30 37 1 18 36
M  V30 38 1 19 37
M  V30 39 1 19 38
M  V30 40 1 20 39
M  V30 41 1 20 40
M  V30 42 1 21 41
M  V30 43 1 22 42
M  V30 END BOND
M  V30 END CTAB
M  END
>  <Dataset>  (9) 
OralDrugs

>  <Ligand_Instance>  (9) 
nan

>  <PDB_ID>  (9) 
nan

>  <Standardized_SMILES>  (9) 
CC(=O)c1ccc(S(=O)(=O)NC(=O)NC2CCCCC2)cc1

>  <Name>  (9) 
Acetohexamide

>  <Pocket>  (9) 
nan

>  <ATP_Site>  (9) 
nan

>  <Peripheral>  (9) 
nan

>  <Num_H_Atoms_ProtBoundConf>  (9) 
nan

>  <Num_Resolved_Atoms>  (9) 
nan

>  <Num_Not_Resolved_Atoms>  (9) 
nan

$$$$
CHEMBL734
     RDKit          3D

  0  0  0  0  0  0  0  0  0  0999 V3000
M  V30 BEGIN CTAB
M  V30 COUNTS 10 9 0 0 0
M  V30 BEGIN ATOM
M  V30 1 C 1.195188 -1.363392 2.685639 0
M  V30 2 C 1.518840 -1.894736 1.334171 0
M  V30 3 O 1.677542 -3.093533 0.932102 0
M  V30 4 N 1.695229 -0.995473 0.267367 0
M  V30 5 O 1.983641 -1.112384 -1.035946 0
M  V30 6 H 1.463703 -2.159081 3.426971 0
M  V30 7 H 0.148235 -1.056714 2.747351 0
M  V30 8 H 1.885698 -0.518183 2.910906 0
M  V30 9 H 1.605992 0.055978 0.388414 0
M  V30 10 H 2.949215 -0.858639 -1.159136 0
M  V30 END ATOM
M  V30 BEGIN BOND
M  V30 1 1 1 2
M  V30 2 2 2 3
M  V30 3 1 2 4
M  V30 4 1 4 5
M  V30 5 1 1 6
M  V30 6 1 1 7
M  V30 7 1 1 8
M  V30 8 1 4 9
M  V30 9 1 5 10
M  V30 END BOND
M  V30 END CTAB
M  END
>  <Dataset>  (10) 
OralDrugs

>  <Ligand_Instance>  (10) 
nan

>  <PDB_ID>  (10) 
nan

>  <Standardized_SMILES>  (10) 
CC(=O)NO

>  <Name>  (10) 
Acetohydroxamic Acid

>  <Pocket>  (10) 
nan

>  <ATP_Site>  (10) 
nan

>  <Peripheral>  (10) 
nan

>  <Num_H_Atoms_ProtBoundConf>  (10) 
nan

>  <Num_Resolved_Atoms>  (10) 
nan

>  <Num_Not_Resolved_Atoms>  (10) 
nan

$$$$
CHEMBL1085
     RDKit          3D

  0  0  0  0  0  0  0  0  0  0999 V3000
M  V30 BEGIN CTAB
M  V30 COUNTS 58 61 0 0 0
M  V30 BEGIN ATOM
M  V30 1 C 0.441849 -0.021922 4.732669 0
M  V30 2 C 1.602070 -0.895966 5.017779 0
M  V30 3 O 2.077220 -1.030908 6.173001 0
M  V30 4 C 2.212484 -1.626745 3.908291 0
M  V30 5 C 3.282633 -2.431959 4.190912 0
M  V30 6 C 3.867762 -3.122058 3.169535 0
M  V30 7 C 3.371457 -2.988317 1.909668 0
M  V30 8 C 2.308493 -2.209825 1.525988 0
M  V30 9 C 1.769151 -1.544330 2.608451 0
M  V30 10 N 1.770950 -2.071560 0.219248 0
M  V30 11 C 0.656109 -1.134053 0.090481 0
M  V30 12 C 1.084997 0.284699 0.132421 0
M  V30 13 C -0.049400 1.223696 -0.021006 0
M  V30 14 N -1.105604 1.237419 0.912115 0
M  V30 15 C -1.936612 2.408021 0.529173 0
M  V30 16 C -2.864008 2.076194 -0.617029 0
M  V30 17 N -3.867551 1.112272 -0.210212 0
M  V30 18 C -4.183277 0.121570 -1.184061 0
M  V30 19 C -4.902360 0.678895 -2.390116 0
M  V30 20 O -4.138825 1.640810 -3.040808 0
M  V30 21 C -3.486954 0.572687 1.072392 0
M  V30 22 C -2.009724 0.140474 0.952746 0
M  V30 23 C 2.322069 -2.775825 -0.877094 0
M  V30 24 C 1.794092 -2.633736 -2.138623 0
M  V30 25 C 2.248170 -3.268138 -3.277486 0
M  V30 26 C 3.327419 -4.127636 -3.170529 0
M  V30 27 C 3.899121 -4.309493 -1.928726 0
M  V30 28 C 3.383432 -3.639955 -0.857378 0
M  V30 29 S 4.224408 -3.955649 0.678394 0
M  V30 30 H 0.732067 0.949622 4.284394 0
M  V30 31 H -0.332441 -0.508018 4.099686 0
M  V30 32 H -0.079726 0.219467 5.698195 0
M  V30 33 H 3.658966 -2.520935 5.200119 0
M  V30 34 H 4.709215 -3.749268 3.428546 0
M  V30 35 H 0.913646 -0.886420 2.531071 0
M  V30 36 H 0.182873 -1.290577 -0.882277 0
M  V30 37 H -0.039638 -1.450764 0.905462 0
M  V30 38 H 1.715602 0.602644 0.980953 0
M  V30 39 H 1.807778 0.398724 -0.753592 0
M  V30 40 H 0.378339 2.264759 -0.040731 0
M  V30 41 H -0.515411 1.151058 -1.061610 0
M  V30 42 H -2.520411 2.799556 1.354626 0
M  V30 43 H -1.253351 3.221582 0.162721 0
M  V30 44 H -3.433069 3.029134 -0.805649 0
M  V30 45 H -2.357028 1.840543 -1.553142 0
M  V30 46 H -4.832068 -0.635981 -0.694738 0
M  V30 47 H -3.296029 -0.450937 -1.569926 0
M  V30 48 H -5.927362 1.025641 -2.145037 0
M  V30 49 H -5.012776 -0.170033 -3.109354 0
M  V30 50 H -3.600217 1.275694 -3.779370 0
M  V30 51 H -4.049895 -0.396387 1.187951 0
M  V30 52 H -3.666747 1.235517 1.915496 0
M  V30 53 H -1.807466 -0.415422 1.920902 0
M  V30 54 H -1.992089 -0.489676 0.063627 0
M  V30 55 H 0.959544 -1.998257 -2.382529 0
M  V30 56 H 1.846027 -3.166277 -4.267723 0
M  V30 57 H 3.717064 -4.646331 -4.032317 0
M  V30 58 H 4.739643 -4.985172 -1.878688 0
M  V30 END ATOM
M  V30 BEGIN BOND
M  V30 1 1 1 2
M  V30 2 2 2 3
M  V30 3 1 2 4
M  V30 4 2 4 5
M  V30 5 1 5 6
M  V30 6 2 6 7
M  V30 7 1 7 8
M  V30 8 2 8 9
M  V30 9 1 8 10
M  V30 10 1 10 11
M  V30 11 1 11 12
M  V30 12 1 12 13
M  V30 13 1 13 14
M  V30 14 1 14 15
M  V30 15 1 15 16
M  V30 16 1 16 17
M  V30 17 1 17 18
M  V30 18 1 18 19
M  V30 19 1 19 20
M  V30 20 1 17 21
M  V30 21 1 21 22
M  V30 22 1 10 23
M  V30 23 2 23 24
M  V30 24 1 24 25
M  V30 25 2 25 26
M  V30 26 1 26 27
M  V30 27 2 27 28
M  V30 28 1 28 29
M  V30 29 1 9 4
M  V30 30 1 22 14
M  V30 31 1 28 23
M  V30 32 1 29 7
M  V30 33 1 1 30
M  V30 34 1 1 31
M  V30 35 1 1 32
M  V30 36 1 5 33
M  V30 37 1 6 34
M  V30 38 1 9 35
M  V30 39 1 11 36
M  V30 40 1 11 37
M  V30 41 1 12 38
M  V30 42 1 12 39
M  V30 43 1 13 40
M  V30 44 1 13 41
M  V30 45 1 15 42
M  V30 46 1 15 43
M  V30 47 1 16 44
M  V30 48 1 16 45
M  V30 49 1 18 46
M  V30 50 1 18 47
M  V30 51 1 19 48
M  V30 52 1 19 49
M  V30 53 1 20 50
M  V30 54 1 21 51
M  V30 55 1 21 52
M  V30 56 1 22 53
M  V30 57 1 22 54
M  V30 58 1 24 55
M  V30 59 1 25 56
M  V30 60 1 26 57
M  V30 61 1 27 58
M  V30 END BOND
M  V30 END CTAB
M  END
>  <Dataset>  (11) 
OralDrugs

>  <Ligand_Instance>  (11) 
nan

>  <PDB_ID>  (11) 
nan

>  <Standardized_SMILES>  (11) 
CC(=O)c1ccc2c(c1)N(CCCN1CCN(CCO)CC1)c1ccccc1S2

>  <Name>  (11) 
Acetophenazine

>  <Pocket>  (11) 
nan

>  <ATP_Site>  (11) 
nan

>  <Peripheral>  (11) 
nan

>  <Num_H_Atoms_ProtBoundConf>  (11) 
nan

>  <Num_Resolved_Atoms>  (11) 
nan

>  <Num_Not_Resolved_Atoms>  (11) 
nan

$$$$
CHEMBL600
     RDKit          3D

  0  0  0  0  0  0  0  0  0  0999 V3000
M  V30 BEGIN CTAB
M  V30 COUNTS 19 18 0 0 0
M  V30 BEGIN ATOM
M  V30 1 C -2.006271 -0.708201 1.430721 0
M  V30 2 C -0.733724 0.007774 1.696995 0
M  V30 3 O -0.644878 0.837792 2.642321 0
M  V30 4 N 0.452662 -0.184607 0.923643 0
M  V30 5 C 1.680905 0.531603 1.210528 0 CFG=1
M  V30 6 C 2.826314 -0.409461 1.495268 0
M  V30 7 S 3.078766 -1.452390 0.028907 0
M  V30 8 C 2.035587 1.310081 -0.005650 0
M  V30 9 O 3.030269 2.062222 -0.164526 0
M  V30 10 O 1.257517 1.282524 -1.155659 0
M  V30 11 H -2.163055 -0.971560 0.371747 0
M  V30 12 H -2.831724 0.004287 1.683903 0
M  V30 13 H -2.117403 -1.633512 2.026448 0
M  V30 14 H 0.435553 -0.860784 0.128155 0
M  V30 15 H 1.485134 1.192082 2.085011 0
M  V30 16 H 3.723402 0.194889 1.632291 0
M  V30 17 H 2.657275 -1.023833 2.392406 0
M  V30 18 H 2.013062 -2.312637 -0.199737 0
M  V30 19 H 1.619108 1.425357 -2.091843 0
M  V30 END ATOM
M  V30 BEGIN BOND
M  V30 1 1 1 2
M  V30 2 2 2 3
M  V30 3 1 2 4
M  V30 4 1 4 5
M  V30 5 1 5 6
M  V30 6 1 6 7
M  V30 7 1 5 8
M  V30 8 2 8 9
M  V30 9 1 8 10
M  V30 10 1 1 11
M  V30 11 1 1 12
M  V30 12 1 1 13
M  V30 13 1 4 14
M  V30 14 1 5 15 CFG=1
M  V30 15 1 6 16
M  V30 16 1 6 17
M  V30 17 1 7 18
M  V30 18 1 10 19
M  V30 END BOND
M  V30 END CTAB
M  END
>  <Dataset>  (12) 
OralDrugs

>  <Ligand_Instance>  (12) 
nan

>  <PDB_ID>  (12) 
nan

>  <Standardized_SMILES>  (12) 
CC(=O)N[C@@H](CS)C(=O)O

>  <Name>  (12) 
Acetylcysteine

>  <Pocket>  (12) 
nan

>  <ATP_Site>  (12) 
nan

>  <Peripheral>  (12) 
nan

>  <Num_H_Atoms_ProtBoundConf>  (12) 
nan

>  <Num_Resolved_Atoms>  (12) 
nan

>  <Num_Not_Resolved_Atoms>  (12) 
nan

$$$$
CHEMBL3545057
     RDKit          3D

  0  0  0  0  0  0  0  0  0  0999 V3000
M  V30 BEGIN CTAB
M  V30 COUNTS 123 130 0 0 0
M  V30 BEGIN ATOM
M  V30 1 C 2.086968 -9.643442 -1.282146 0
M  V30 2 C 1.793049 -8.200863 -1.168618 0
M  V30 3 O 2.297251 -7.866374 -0.045819 0
M  V30 4 O 1.195699 -7.141873 -1.815802 0
M  V30 5 C 1.171364 -5.867672 -1.262341 0 CFG=1
M  V30 6 C 1.860924 -4.834425 -2.152652 0
M  V30 7 C 1.732379 -3.479859 -1.543090 0 CFG=2
M  V30 8 O 2.937145 -2.830689 -1.372922 0
M  V30 9 C 3.029603 -1.602745 -2.016236 0 CFG=1
M  V30 10 C 3.456952 -0.578247 -0.995006 0 CFG=1
M  V30 11 O 4.026943 -1.264936 0.084077 0
M  V30 12 C 4.507658 0.363950 -1.563007 0
M  V30 13 C 4.125748 0.621422 -3.004954 0 CFG=2
M  V30 14 O 2.811946 1.012862 -3.130978 0
M  V30 15 C 2.583399 2.230323 -3.709285 0 CFG=1
M  V30 16 C 1.581336 2.225029 -4.815250 0 CFG=1
M  V30 17 O 1.954809 1.414457 -5.883702 0
M  V30 18 C 0.212529 1.800758 -4.274765 0
M  V30 19 C -0.114477 2.522865 -3.002129 0 CFG=2
M  V30 20 O -1.431669 2.935558 -2.883523 0
M  V30 21 C -2.035726 2.529804 -1.696324 0 CFG=1
M  V30 22 C -2.422579 3.745154 -0.909052 0
M  V30 23 C -3.812635 3.657511 -0.332084 0
M  V30 24 C -4.188624 2.319228 0.183439 0 CFG=1
M  V30 25 C -5.672173 2.432886 0.575747 0
M  V30 26 C -4.035954 1.266277 -0.859453 0 CFG=2
M  V30 27 C -3.431063 -0.015962 -0.357431 0
M  V30 28 C -3.871916 -0.476692 0.981861 0
M  V30 29 C -4.123613 0.623056 1.961320 0 CFG=2
M  V30 30 C -3.447628 1.863377 1.392247 0 CFG=2
M  V30 31 C -3.272007 2.870741 2.490986 0
M  V30 32 C -2.143927 2.279289 3.357477 0
M  V30 33 C -2.443848 0.902887 3.843822 0 CFG=2
M  V30 34 C -2.522451 0.971729 5.357667 0
M  V30 35 C -1.434550 -0.144831 3.526083 0 CFG=1
M  V30 36 C -0.179592 0.018927 4.295699 0
M  V30 37 C 0.360257 -0.792343 5.186492 0
M  V30 38 C 1.607274 -0.264954 5.718481 0
M  V30 39 O 2.379788 -0.771517 6.578872 0
M  V30 40 O 1.811292 0.940859 5.092303 0
M  V30 41 C 0.735795 1.182275 4.203266 0
M  V30 42 C -2.174770 -1.413235 3.825744 0
M  V30 43 C -3.658515 -1.072630 3.760870 0
M  V30 44 C -3.768640 0.359082 3.364143 0 CFG=2
M  V30 45 O -4.719680 0.968449 4.218031 0
M  V30 46 C -3.224411 1.678037 -2.057278 0
M  V30 47 O 0.769911 3.620467 -2.951184 0
M  V30 48 C 2.017821 3.118567 -2.588597 0 CFG=2
M  V30 49 C 3.026393 4.160281 -2.247939 0
M  V30 50 O 4.339601 -0.525370 -3.723480 0
M  V30 51 C 4.151478 -1.711295 -3.033562 0 CFG=2
M  V30 52 C 3.982730 -2.827646 -4.006627 0
M  V30 53 O 0.974414 -3.579559 -0.372083 0
M  V30 54 C -0.329011 -3.940813 -0.783725 0 CFG=2
M  V30 55 C -1.329830 -3.535419 0.245327 0
M  V30 56 C -0.267081 -5.447031 -1.005857 0 CFG=1
M  V30 57 O -1.053962 -5.791354 -2.090314 0
M  V30 58 H 1.666027 -10.073050 -2.220600 0
M  V30 59 H 3.196386 -9.816018 -1.270866 0
M  V30 60 H 1.622534 -10.223102 -0.455732 0
M  V30 61 H 1.676757 -5.842044 -0.279744 0
M  V30 62 H 1.405407 -4.943276 -3.158348 0
M  V30 63 H 2.910830 -5.180135 -2.225565 0
M  V30 64 H 1.129650 -2.832766 -2.225732 0
M  V30 65 H 2.064253 -1.414910 -2.496327 0
M  V30 66 H 2.647148 0.042155 -0.595088 0
M  V30 67 H 4.456396 -2.117534 -0.218228 0
M  V30 68 H 5.486955 -0.147455 -1.565519 0
M  V30 69 H 4.600521 1.280905 -0.972128 0
M  V30 70 H 4.844736 1.378365 -3.396947 0
M  V30 71 H 3.562669 2.660596 -4.033414 0
M  V30 72 H 1.520730 3.253447 -5.230457 0
M  V30 73 H 2.468395 1.931372 -6.553600 0
M  V30 74 H 0.218080 0.701151 -4.159033 0
M  V30 75 H -0.516379 2.125654 -5.069132 0
M  V30 76 H 0.110481 1.918706 -2.073958 0
M  V30 77 H -1.260019 1.964316 -1.144564 0
M  V30 78 H -2.300857 4.633799 -1.559222 0
M  V30 79 H -1.704345 3.864172 -0.075208 0
M  V30 80 H -4.507985 3.901454 -1.167351 0
M  V30 81 H -3.976811 4.468157 0.403869 0
M  V30 82 H -5.699365 2.722590 1.645125 0
M  V30 83 H -6.250280 1.548290 0.324787 0
M  V30 84 H -6.153215 3.279316 0.040718 0
M  V30 85 H -5.065577 0.981228 -1.234823 0
M  V30 86 H -3.568619 -0.847328 -1.114566 0
M  V30 87 H -2.330775 0.123551 -0.340922 0
M  V30 88 H -4.795179 -1.074260 0.792698 0
M  V30 89 H -3.067742 -1.112344 1.401838 0
M  V30 90 H -5.244256 0.780235 1.935169 0
M  V30 91 H -2.441949 1.542248 1.087056 0
M  V30 92 H -2.844772 3.798103 2.111120 0
M  V30 93 H -4.171419 3.091464 3.063804 0
M  V30 94 H -1.948539 3.032456 4.125985 0
M  V30 95 H -1.271480 2.247466 2.655374 0
M  V30 96 H -2.004041 0.114290 5.854590 0
M  V30 97 H -1.950103 1.871986 5.728059 0
M  V30 98 H -3.551875 1.044569 5.742715 0
M  V30 99 H -1.126201 -0.166080 2.461209 0
M  V30 100 H -0.000907 -1.747030 5.540455 0
M  V30 101 H 0.242982 2.135934 4.494156 0
M  V30 102 H 1.187114 1.308183 3.197468 0
M  V30 103 H -1.883261 -1.754491 4.838831 0
M  V30 104 H -1.908791 -2.265945 3.153849 0
M  V30 105 H -4.211890 -1.778269 3.120595 0
M  V30 106 H -4.061445 -1.227483 4.781591 0
M  V30 107 H -5.332466 0.314131 4.622388 0
M  V30 108 H -3.902751 2.221051 -2.743832 0
M  V30 109 H -2.907158 0.759972 -2.589098 0
M  V30 110 H 1.834582 2.522008 -1.664032 0
M  V30 111 H 3.155419 4.276023 -1.130915 0
M  V30 112 H 4.034363 3.802799 -2.585803 0
M  V30 113 H 2.864541 5.149125 -2.709972 0
M  V30 114 H 5.075199 -1.916303 -2.458103 0
M  V30 115 H 4.653960 -2.588333 -4.880928 0
M  V30 116 H 2.987875 -2.965709 -4.425074 0
M  V30 117 H 4.417110 -3.786476 -3.604326 0
M  V30 118 H -0.562150 -3.447656 -1.742633 0
M  V30 119 H -2.344647 -3.525055 -0.233217 0
M  V30 120 H -1.382631 -4.229271 1.111635 0
M  V30 121 H -1.112041 -2.497840 0.562697 0
M  V30 122 H -0.576210 -5.923389 -0.055898 0
M  V30 123 H -1.579173 -6.589711 -1.876386 0
M  V30 END ATOM
M  V30 BEGIN BOND
M  V30 1 1 1 2
M  V30 2 2 2 3
M  V30 3 1 2 4
M  V30 4 1 4 5
M  V30 5 1 5 6
M  V30 6 1 6 7
M  V30 7 1 7 8
M  V30 8 1 8 9
M  V30 9 1 9 10
M  V30 10 1 10 11
M  V30 11 1 10 12
M  V30 12 1 12 13
M  V30 13 1 13 14
M  V30 14 1 14 15
M  V30 15 1 15 16
M  V30 16 1 16 17
M  V30 17 1 16 18
M  V30 18 1 18 19
M  V30 19 1 19 20
M  V30 20 1 20 21
M  V30 21 1 21 22
M  V30 22 1 22 23
M  V30 23 1 23 24
M  V30 24 1 24 25 CFG=1
M  V30 25 1 24 26
M  V30 26 1 26 27
M  V30 27 1 27 28
M  V30 28 1 28 29
M  V30 29 1 29 30
M  V30 30 1 30 31
M  V30 31 1 31 32
M  V30 32 1 32 33
M  V30 33 1 33 34 CFG=1
M  V30 34 1 33 35
M  V30 35 1 35 36
M  V30 36 2 36 37
M  V30 37 1 37 38
M  V30 38 2 38 39
M  V30 39 1 38 40
M  V30 40 1 40 41
M  V30 41 1 35 42
M  V30 42 1 42 43
M  V30 43 1 43 44
M  V30 44 1 44 45 CFG=1
M  V30 45 1 26 46
M  V30 46 1 19 47
M  V30 47 1 47 48
M  V30 48 1 48 49
M  V30 49 1 13 50
M  V30 50 1 50 51
M  V30 51 1 51 52
M  V30 52 1 7 53
M  V30 53 1 53 54
M  V30 54 1 54 55
M  V30 55 1 54 56
M  V30 56 1 56 57
M  V30 57 1 56 5
M  V30 58 1 51 9
M  V30 59 1 48 15
M  V30 60 1 46 21
M  V30 61 1 30 24
M  V30 62 1 44 33
M  V30 63 1 44 29
M  V30 64 1 41 36
M  V30 65 1 1 58
M  V30 66 1 1 59
M  V30 67 1 1 60
M  V30 68 1 5 61 CFG=1
M  V30 69 1 6 62
M  V30 70 1 6 63
M  V30 71 1 7 64 CFG=3
M  V30 72 1 9 65 CFG=3
M  V30 73 1 10 66 CFG=1
M  V30 74 1 11 67
M  V30 75 1 12 68
M  V30 76 1 12 69
M  V30 77 1 13 70 CFG=3
M  V30 78 1 15 71 CFG=3
M  V30 79 1 16 72 CFG=3
M  V30 80 1 17 73
M  V30 81 1 18 74
M  V30 82 1 18 75
M  V30 83 1 19 76 CFG=1
M  V30 84 1 21 77 CFG=1
M  V30 85 1 22 78
M  V30 86 1 22 79
M  V30 87 1 23 80
M  V30 88 1 23 81
M  V30 89 1 25 82
M  V30 90 1 25 83
M  V30 91 1 25 84
M  V30 92 1 26 85 CFG=3
M  V30 93 1 27 86
M  V30 94 1 27 87
M  V30 95 1 28 88
M  V30 96 1 28 89
M  V30 97 1 29 90 CFG=1
M  V30 98 1 30 91 CFG=3
M  V30 99 1 31 92
M  V30 100 1 31 93
M  V30 101 1 32 94
M  V30 102 1 32 95
M  V30 103 1 34 96
M  V30 104 1 34 97
M  V30 105 1 34 98
M  V30 106 1 35 99 CFG=3
M  V30 107 1 37 100
M  V30 108 1 41 101
M  V30 109 1 41 102
M  V30 110 1 42 103
M  V30 111 1 42 104
M  V30 112 1 43 105
M  V30 113 1 43 106
M  V30 114 1 45 107
M  V30 115 1 46 108
M  V30 116 1 46 109
M  V30 117 1 48 110 CFG=1
M  V30 118 1 49 111
M  V30 119 1 49 112
M  V30 120 1 49 113
M  V30 121 1 51 114 CFG=1
M  V30 122 1 52 115
M  V30 123 1 52 116
M  V30 124 1 52 117
M  V30 125 1 54 118 CFG=3
M  V30 126 1 55 119
M  V30 127 1 55 120
M  V30 128 1 55 121
M  V30 129 1 56 122 CFG=1
M  V30 130 1 57 123
M  V30 END BOND
M  V30 END CTAB
M  END
>  <Dataset>  (13) 
OralDrugs

>  <Ligand_Instance>  (13) 
nan

>  <PDB_ID>  (13) 
nan

>  <Standardized_SMILES>  (13) 
CC(=O)O[C@H]1C[C@H](O[C@H]2[C@@H](O)C[C@H](O[C@H]3[C@@H](O)C[C@H](O[C@H]4CC[C@@]5(C)[C@H](CC[C@@H]6[C@@H]5CC[C@]5(C)[C@@H](C7=CC(=O)OC7)CC[C@]65O)C4)O[C@@H]3C)O[C@@H]2C)O[C@H](C)[C@H]1O

>  <Name>  (13) 
Acetyldigitoxin

>  <Pocket>  (13) 
nan

>  <ATP_Site>  (13) 
nan

>  <Peripheral>  (13) 
nan

>  <Num_H_Atoms_ProtBoundConf>  (13) 
nan

>  <Num_Resolved_Atoms>  (13) 
nan

>  <Num_Not_Resolved_Atoms>  (13) 
nan

$$$$
CHEMBL1131
     RDKit          3D

  0  0  0  0  0  0  0  0  0  0999 V3000
M  V30 BEGIN CTAB
M  V30 COUNTS 50 50 0 0 0
M  V30 BEGIN ATOM
M  V30 1 C 4.643398 -5.998318 0.743141 0
M  V30 2 O 4.207705 -5.461984 -0.498603 0
M  V30 3 C 3.293438 -4.425943 -0.571282 0
M  V30 4 C 2.801646 -3.911328 0.597949 0
M  V30 5 C 1.879655 -2.866049 0.513002 0
M  V30 6 C 1.368451 -2.326561 1.780271 0
M  V30 7 C 1.488575 -2.381187 -0.712445 0
M  V30 8 C 0.543907 -1.318185 -0.922768 0
M  V30 9 C -0.234026 -0.473814 -0.302325 0
M  V30 10 C -1.146341 0.563701 -0.765616 0
M  V30 11 C -1.396727 0.899772 -2.172308 0
M  V30 12 C -1.786876 1.240929 0.168974 0
M  V30 13 C -2.711370 2.289244 -0.238546 0
M  V30 14 C -3.367296 2.982715 0.674465 0
M  V30 15 C -4.311766 4.048051 0.386536 0
M  V30 16 C -4.682375 4.516970 -0.973227 0
M  V30 17 C -4.915123 4.678798 1.390600 0
M  V30 18 C -5.876983 5.757824 1.236200 0
M  V30 19 O -6.314742 6.290479 0.187331 0
M  V30 20 O -6.449602 6.349446 2.338190 0
M  V30 21 C 2.013243 -2.932944 -1.867185 0
M  V30 22 C 1.658462 -2.474521 -3.237270 0
M  V30 23 C 2.918257 -3.958232 -1.800177 0
M  V30 24 C 3.499801 -4.575021 -3.012520 0
M  V30 25 H 3.782037 -6.272962 1.400817 0
M  V30 26 H 5.235270 -6.907356 0.527805 0
M  V30 27 H 5.310419 -5.317686 1.295442 0
M  V30 28 H 3.140975 -4.328366 1.535363 0
M  V30 29 H 1.648294 -1.265272 1.976502 0
M  V30 30 H 0.302967 -2.503665 1.954133 0
M  V30 31 H 1.908966 -2.875713 2.625977 0
M  V30 32 H 0.300538 -1.028774 -1.961070 0
M  V30 33 H -0.114957 -0.652187 0.749605 0
M  V30 34 H -1.068282 1.933940 -2.437964 0
M  V30 35 H -2.506719 0.829066 -2.335422 0
M  V30 36 H -0.948897 0.247429 -2.915622 0
M  V30 37 H -1.638436 1.032243 1.237932 0
M  V30 38 H -2.876565 2.517235 -1.259021 0
M  V30 39 H -3.168814 2.718919 1.703442 0
M  V30 40 H -4.506362 5.612178 -1.104012 0
M  V30 41 H -5.802902 4.389524 -1.045093 0
M  V30 42 H -4.173247 3.961480 -1.773447 0
M  V30 43 H -4.664670 4.358175 2.375147 0
M  V30 44 H -6.751997 7.313888 2.373159 0
M  V30 45 H 1.780081 -1.351270 -3.301187 0
M  V30 46 H 2.367527 -2.855200 -3.997074 0
M  V30 47 H 0.612698 -2.690895 -3.506884 0
M  V30 48 H 4.065405 -5.494314 -2.745441 0
M  V30 49 H 2.641048 -4.839427 -3.686668 0
M  V30 50 H 4.142422 -3.817407 -3.505180 0
M  V30 END ATOM
M  V30 BEGIN BOND
M  V30 1 1 1 2
M  V30 2 1 2 3
M  V30 3 2 3 4
M  V30 4 1 4 5
M  V30 5 1 5 6
M  V30 6 2 5 7
M  V30 7 1 7 8
M  V30 8 2 8 9
M  V30 9 1 9 10
M  V30 10 1 10 11
M  V30 11 2 10 12
M  V30 12 1 12 13
M  V30 13 2 13 14
M  V30 14 1 14 15
M  V30 15 1 15 16
M  V30 16 2 15 17
M  V30 17 1 17 18
M  V30 18 2 18 19
M  V30 19 1 18 20
M  V30 20 1 7 21
M  V30 21 1 21 22
M  V30 22 2 21 23
M  V30 23 1 23 24
M  V30 24 1 23 3
M  V30 25 1 1 25
M  V30 26 1 1 26
M  V30 27 1 1 27
M  V30 28 1 4 28
M  V30 29 1 6 29
M  V30 30 1 6 30
M  V30 31 1 6 31
M  V30 32 1 8 32
M  V30 33 1 9 33
M  V30 34 1 11 34
M  V30 35 1 11 35
M  V30 36 1 11 36
M  V30 37 1 12 37
M  V30 38 1 13 38
M  V30 39 1 14 39
M  V30 40 1 16 40
M  V30 41 1 16 41
M  V30 42 1 16 42
M  V30 43 1 17 43
M  V30 44 1 20 44
M  V30 45 1 22 45
M  V30 46 1 22 46
M  V30 47 1 22 47
M  V30 48 1 24 48
M  V30 49 1 24 49
M  V30 50 1 24 50
M  V30 END BOND
M  V30 END CTAB
M  END
>  <Dataset>  (14) 
OralDrugs

>  <Ligand_Instance>  (14) 
nan

>  <PDB_ID>  (14) 
nan

>  <Standardized_SMILES>  (14) 
COc1cc(C)c(/C=C/C(C)=C/C=C/C(C)=C/C(=O)O)c(C)c1C

>  <Name>  (14) 
Acitretin

>  <Pocket>  (14) 
nan

>  <ATP_Site>  (14) 
nan

>  <Peripheral>  (14) 
nan

>  <Num_H_Atoms_ProtBoundConf>  (14) 
nan

>  <Num_Resolved_Atoms>  (14) 
nan

>  <Num_Not_Resolved_Atoms>  (14) 
nan

$$$$
CHEMBL1224
     RDKit          3D

  0  0  0  0  0  0  0  0  0  0999 V3000
M  V30 BEGIN CTAB
M  V30 COUNTS 50 52 0 0 0
M  V30 BEGIN ATOM
M  V30 1 C 0.986068 -5.940622 0.401371 0
M  V30 2 C 0.792006 -4.472903 0.230800 0
M  V30 3 C -0.452903 -3.870236 0.059290 0
M  V30 4 C -0.623261 -2.522578 -0.096344 0
M  V30 5 C 0.426744 -1.661384 -0.094742 0
M  V30 6 C 0.131837 -0.252933 -0.182696 0
M  V30 7 C 1.054230 0.538345 -0.676325 0
M  V30 8 C 2.387767 0.492329 -1.222541 0
M  V30 9 N 3.405748 1.226820 -0.539671 0
M  V30 10 C 3.789241 0.779620 0.745624 0
M  V30 11 C 4.747292 1.856448 1.212167 0
M  V30 12 C 4.446883 3.068512 0.326906 0
M  V30 13 C 3.275838 2.644298 -0.539335 0
M  V30 14 C -1.133595 0.291525 0.285797 0
M  V30 15 C -1.495878 1.611617 0.225816 0
M  V30 16 C -2.684201 2.128345 0.688363 0
M  V30 17 C -3.606489 1.281241 1.263043 0
M  V30 18 C -3.256508 -0.040582 1.329098 0
M  V30 19 C -4.094866 -1.084870 1.898704 0
M  V30 20 C -5.283230 -0.821514 2.406804 0
M  V30 21 C -6.135709 -1.855288 2.981233 0
M  V30 22 O -7.270047 -1.679442 3.479602 0
M  V30 23 O -5.940229 -3.212730 3.122797 0
M  V30 24 N -2.090343 -0.421697 0.853365 0
M  V30 25 C 1.645378 -2.261507 0.075915 0
M  V30 26 C 1.873087 -3.602880 0.235087 0
M  V30 27 H 1.125505 -6.434503 -0.564560 0
M  V30 28 H 1.872212 -6.132593 1.037870 0
M  V30 29 H 0.090074 -6.381526 0.906404 0
M  V30 30 H -1.245783 -4.609858 0.064036 0
M  V30 31 H -1.674770 -2.333771 -0.224929 0
M  V30 32 H 0.810236 1.589282 -0.697437 0
M  V30 33 H 2.712103 -0.485556 -1.549059 0
M  V30 34 H 2.305885 1.046126 -2.260795 0
M  V30 35 H 4.365464 -0.167930 0.650001 0
M  V30 36 H 2.974992 0.618857 1.479071 0
M  V30 37 H 5.806456 1.541106 1.047695 0
M  V30 38 H 4.536684 2.126966 2.257858 0
M  V30 39 H 4.164205 3.940854 0.920595 0
M  V30 40 H 5.336826 3.314668 -0.310492 0
M  V30 41 H 3.360676 3.009652 -1.581717 0
M  V30 42 H 2.337518 2.958360 -0.034674 0
M  V30 43 H -0.851210 2.348033 -0.201353 0
M  V30 44 H -2.929833 3.200505 0.617334 0
M  V30 45 H -4.553436 1.616893 1.644587 0
M  V30 46 H -3.823548 -2.109018 1.947918 0
M  V30 47 H -5.699569 0.157630 2.432933 0
M  V30 48 H -6.438770 -3.923440 2.601627 0
M  V30 49 H 2.560745 -1.710236 0.148994 0
M  V30 50 H 2.864000 -4.039878 0.367228 0
M  V30 END ATOM
M  V30 BEGIN BOND
M  V30 1 1 1 2
M  V30 2 2 2 3
M  V30 3 1 3 4
M  V30 4 2 4 5
M  V30 5 1 5 6
M  V30 6 2 6 7
M  V30 7 1 7 8
M  V30 8 1 8 9
M  V30 9 1 9 10
M  V30 10 1 10 11
M  V30 11 1 11 12
M  V30 12 1 12 13
M  V30 13 1 6 14
M  V30 14 2 14 15
M  V30 15 1 15 16
M  V30 16 2 16 17
M  V30 17 1 17 18
M  V30 18 1 18 19
M  V30 19 2 19 20
M  V30 20 1 20 21
M  V30 21 2 21 22
M  V30 22 1 21 23
M  V30 23 2 18 24
M  V30 24 1 5 25
M  V30 25 2 25 26
M  V30 26 1 26 2
M  V30 27 1 13 9
M  V30 28 1 24 14
M  V30 29 1 1 27
M  V30 30 1 1 28
M  V30 31 1 1 29
M  V30 32 1 3 30
M  V30 33 1 4 31
M  V30 34 1 7 32
M  V30 35 1 8 33
M  V30 36 1 8 34
M  V30 37 1 10 35
M  V30 38 1 10 36
M  V30 39 1 11 37
M  V30 40 1 11 38
M  V30 41 1 12 39
M  V30 42 1 12 40
M  V30 43 1 13 41
M  V30 44 1 13 42
M  V30 45 1 15 43
M  V30 46 1 16 44
M  V30 47 1 17 45
M  V30 48 1 19 46
M  V30 49 1 20 47
M  V30 50 1 23 48
M  V30 51 1 25 49
M  V30 52 1 26 50
M  V30 END BOND
M  V30 END CTAB
M  END
>  <Dataset>  (15) 
OralDrugs

>  <Ligand_Instance>  (15) 
nan

>  <PDB_ID>  (15) 
nan

>  <Standardized_SMILES>  (15) 
Cc1ccc(/C(=C\CN2CCCC2)c2cccc(/C=C/C(=O)O)n2)cc1

>  <Name>  (15) 
Acrivastine

>  <Pocket>  (15) 
nan

>  <ATP_Site>  (15) 
nan

>  <Peripheral>  (15) 
nan

>  <Num_H_Atoms_ProtBoundConf>  (15) 
nan

>  <Num_Resolved_Atoms>  (15) 
nan

>  <Num_Not_Resolved_Atoms>  (15) 
nan

$$$$
CHEMBL4594350
     RDKit          3D

  0  0  0  0  0  0  0  0  0  0999 V3000
M  V30 BEGIN CTAB
M  V30 COUNTS 78 83 0 0 0
M  V30 BEGIN ATOM
M  V30 1 C 1.935669 -1.570402 -6.662060 0
M  V30 2 C 2.960145 -1.224891 -5.943712 0
M  V30 3 F 3.965803 -1.893718 -6.535994 0
M  V30 4 C 2.845402 -0.331707 -4.816493 0
M  V30 5 O 4.046369 -0.233398 -4.380739 0
M  V30 6 N 1.711378 0.303772 -4.285012 0
M  V30 7 C 0.317657 0.270716 -4.669762 0
M  V30 8 C -0.625554 0.163367 -3.524432 0
M  V30 9 N -0.001269 0.065248 -2.237505 0
M  V30 10 C -0.520537 -0.467906 -1.027769 0
M  V30 11 N 0.008263 -1.627022 -0.615284 0
M  V30 12 C -0.356176 -2.303143 0.483623 0
M  V30 13 O -0.004055 -3.445379 1.104270 0
M  V30 14 C 0.903360 -4.438648 0.881755 0
M  V30 15 C 2.353672 -4.089712 0.856545 0 CFG=2
M  V30 16 C 2.670069 -3.208731 -0.328558 0
M  V30 17 C 4.074573 -3.624492 -0.721174 0
M  V30 18 C 4.166029 -5.061121 -0.272518 0
M  V30 19 N 3.078016 -5.327745 0.633357 0
M  V30 20 C 3.680064 -5.844107 1.864494 0
M  V30 21 N -1.352718 -1.746460 1.234116 0
M  V30 22 C -1.954006 -0.567357 0.895559 0
M  V30 23 C -1.518368 0.063158 -0.250853 0
M  V30 24 C -2.132264 1.381723 -0.639198 0
M  V30 25 C -2.090870 2.136786 0.728531 0
M  V30 26 N -3.035674 1.474510 1.596933 0
M  V30 27 C -4.061825 2.057977 2.387624 0
M  V30 28 C -5.235688 1.985047 1.615408 0
M  V30 29 C -6.434812 2.540907 2.086439 0
M  V30 30 C -6.484504 3.169894 3.318120 0
M  V30 31 C -5.356362 3.241136 4.067245 0
M  V30 32 C -5.244838 3.819446 5.311565 0
M  V30 33 C -4.077923 3.872072 6.070749 0
M  V30 34 C -2.946794 3.283665 5.504449 0
M  V30 35 C -3.004375 2.697038 4.272617 0
M  V30 36 Cl -1.519707 1.990399 3.767117 0
M  V30 37 C -4.197518 2.694661 3.594807 0
M  V30 38 C -3.052605 0.033911 1.736141 0
M  V30 39 C 1.332918 0.522071 -1.964100 0
M  V30 40 C 2.004097 1.165140 -3.130722 0 CFG=2
M  V30 41 C 1.499144 2.535322 -3.478483 0
M  V30 42 C 1.713035 3.526290 -2.427651 0
M  V30 43 N 1.893804 4.319450 -1.607697 0
M  V30 44 H 1.408329 -2.070518 -7.445923 0
M  V30 45 H 1.397522 -2.072398 -7.450589 0
M  V30 46 H 0.113488 1.153654 -5.303700 0
M  V30 47 H 0.179388 -0.603509 -5.337462 0
M  V30 48 H -1.314113 1.022266 -3.530956 0
M  V30 49 H -1.308862 -0.727607 -3.695682 0
M  V30 50 H 0.746739 -5.237798 1.672322 0
M  V30 51 H 0.611565 -4.959072 -0.082332 0
M  V30 52 H 2.671764 -3.665788 1.812792 0
M  V30 53 H 2.041184 -3.395403 -1.198910 0
M  V30 54 H 2.660600 -2.157668 -0.006749 0
M  V30 55 H 4.793259 -2.971683 -0.158960 0
M  V30 56 H 4.293000 -3.468093 -1.793689 0
M  V30 57 H 4.112576 -5.718164 -1.181574 0
M  V30 58 H 5.160390 -5.249790 0.190737 0
M  V30 59 H 4.589605 -6.401765 1.588388 0
M  V30 60 H 3.996863 -4.962564 2.453194 0
M  V30 61 H 2.971679 -6.413538 2.478701 0
M  V30 62 H -1.588342 1.932952 -1.383492 0
M  V30 63 H -3.192966 1.236236 -0.905201 0
M  V30 64 H -2.392867 3.172355 0.482346 0
M  V30 65 H -1.072529 1.986129 1.052145 0
M  V30 66 H -5.419437 1.545016 0.642340 0
M  V30 67 H -7.381428 2.536090 1.564631 0
M  V30 68 H -7.377245 3.619299 3.742349 0
M  V30 69 H -6.153995 4.276268 5.737795 0
M  V30 70 H -4.094901 4.351832 7.039418 0
M  V30 71 H -2.051570 3.350360 6.143393 0
M  V30 72 H -3.048044 -0.345432 2.752406 0
M  V30 73 H -4.012507 -0.322421 1.256660 0
M  V30 74 H 1.413222 1.146803 -1.055872 0
M  V30 75 H 1.939956 -0.398388 -1.724073 0
M  V30 76 H 3.099827 1.217828 -2.913978 0
M  V30 77 H 0.484835 2.525021 -3.866701 0
M  V30 78 H 2.143583 2.874274 -4.343789 0
M  V30 END ATOM
M  V30 BEGIN BOND
M  V30 1 2 1 2
M  V30 2 1 2 3
M  V30 3 1 2 4
M  V30 4 2 4 5
M  V30 5 1 4 6
M  V30 6 1 6 7
M  V30 7 1 7 8
M  V30 8 1 8 9
M  V30 9 1 9 10
M  V30 10 2 10 11
M  V30 11 1 11 12
M  V30 12 1 12 13
M  V30 13 1 13 14
M  V30 14 1 14 15
M  V30 15 1 15 16
M  V30 16 1 16 17
M  V30 17 1 17 18
M  V30 18 1 18 19
M  V30 19 1 19 20
M  V30 20 2 12 21
M  V30 21 1 21 22
M  V30 22 2 22 23
M  V30 23 1 23 24
M  V30 24 1 24 25
M  V30 25 1 25 26
M  V30 26 1 26 27
M  V30 27 2 27 28
M  V30 28 1 28 29
M  V30 29 2 29 30
M  V30 30 1 30 31
M  V30 31 2 31 32
M  V30 32 1 32 33
M  V30 33 2 33 34
M  V30 34 1 34 35
M  V30 35 1 35 36
M  V30 36 2 35 37
M  V30 37 1 26 38
M  V30 38 1 9 39
M  V30 39 1 39 40
M  V30 40 1 40 41
M  V30 41 1 41 42
M  V30 42 3 42 43
M  V30 43 1 40 6
M  V30 44 1 23 10
M  V30 45 1 37 27
M  V30 46 1 19 15
M  V30 47 1 38 22
M  V30 48 1 37 31
M  V30 49 1 1 44
M  V30 50 1 1 45
M  V30 51 1 7 46
M  V30 52 1 7 47
M  V30 53 1 8 48
M  V30 54 1 8 49
M  V30 55 1 14 50
M  V30 56 1 14 51
M  V30 57 1 15 52 CFG=1
M  V30 58 1 16 53
M  V30 59 1 16 54
M  V30 60 1 17 55
M  V30 61 1 17 56
M  V30 62 1 18 57
M  V30 63 1 18 58
M  V30 64 1 20 59
M  V30 65 1 20 60
M  V30 66 1 20 61
M  V30 67 1 24 62
M  V30 68 1 24 63
M  V30 69 1 25 64
M  V30 70 1 25 65
M  V30 71 1 28 66
M  V30 72 1 29 67
M  V30 73 1 30 68
M  V30 74 1 32 69
M  V30 75 1 33 70
M  V30 76 1 34 71
M  V30 77 1 38 72
M  V30 78 1 38 73
M  V30 79 1 39 74
M  V30 80 1 39 75
M  V30 81 1 40 76 CFG=1
M  V30 82 1 41 77
M  V30 83 1 41 78
M  V30 END BOND
M  V30 END CTAB
M  END
>  <Dataset>  (16) 
OralDrugs

>  <Ligand_Instance>  (16) 
nan

>  <PDB_ID>  (16) 
nan

>  <Standardized_SMILES>  (16) 
C=C(F)C(=O)N1CCN(c2nc(OC[C@@H]3CCCN3C)nc3c2CCN(c2cccc4cccc(Cl)c24)C3)C[C@@H]1CC#N

>  <Name>  (16) 
Adagrasib

>  <Pocket>  (16) 
nan

>  <ATP_Site>  (16) 
nan

>  <Peripheral>  (16) 
nan

>  <Num_H_Atoms_ProtBoundConf>  (16) 
nan

>  <Num_Resolved_Atoms>  (16) 
nan

>  <Num_Not_Resolved_Atoms>  (16) 
nan

$$$$
CHEMBL1173655
     RDKit          3D

  0  0  0  0  0  0  0  0  0  0999 V3000
M  V30 BEGIN CTAB
M  V30 COUNTS 59 62 0 0 0
M  V30 BEGIN ATOM
M  V30 1 C 4.292612 -0.903594 3.958333 0
M  V30 2 N 4.632462 0.094808 2.978042 0
M  V30 3 C 3.723399 1.215720 3.149548 0
M  V30 4 C 4.607304 -0.395910 1.614158 0
M  V30 5 C 3.201514 -0.713597 1.202789 0
M  V30 6 C 2.685091 -0.079245 0.180473 0
M  V30 7 C 1.310968 -0.462032 -0.137965 0
M  V30 8 O 0.709016 -1.347988 0.555220 0
M  V30 9 N 0.488822 0.057480 -1.196342 0
M  V30 10 C -0.770142 -0.638090 -1.088138 0
M  V30 11 C -1.685208 0.015614 -0.255267 0
M  V30 12 C -2.933579 -0.527425 -0.048712 0
M  V30 13 C -3.859659 0.087921 0.766051 0
M  V30 14 N -3.507066 1.309897 1.396444 0
M  V30 15 C -2.880340 1.665798 2.618666 0
M  V30 16 C -2.743270 3.000185 2.901523 0
M  V30 17 C -2.118781 3.273322 4.111045 0
M  V30 18 C -1.661042 2.332822 4.982156 0
M  V30 19 F -1.061737 2.722271 6.144224 0
M  V30 20 C -1.837236 0.991495 4.623872 0
M  V30 21 Cl -1.232472 -0.192287 5.774944 0
M  V30 22 C -2.447981 0.648560 3.439881 0
M  V30 23 N -5.051667 -0.530065 0.900681 0
M  V30 24 C -5.346192 -1.689428 0.281298 0
M  V30 25 N -4.434189 -2.279690 -0.511018 0
M  V30 26 C -3.225452 -1.713394 -0.686538 0
M  V30 27 C -2.335850 -2.366461 -1.507751 0
M  V30 28 C -1.086460 -1.833195 -1.721208 0
M  V30 29 O -0.049088 -2.292640 -2.483012 0
M  V30 30 C -0.043003 -3.469143 -3.241621 0 CFG=1
M  V30 31 C 0.151918 -3.144667 -4.730513 0
M  V30 32 C 0.825638 -4.425698 -5.175805 0
M  V30 33 O 1.757576 -4.655394 -4.168449 0
M  V30 34 C 1.157510 -4.312009 -2.969631 0
M  V30 35 H 4.500560 -1.939441 3.639114 0
M  V30 36 H 3.186017 -0.821341 4.140008 0
M  V30 37 H 4.776269 -0.641466 4.925771 0
M  V30 38 H 2.719750 1.002464 2.725379 0
M  V30 39 H 3.597264 1.380378 4.227828 0
M  V30 40 H 4.159808 2.085813 2.623571 0
M  V30 41 H 5.147257 -1.373255 1.642839 0
M  V30 42 H 5.098316 0.317287 0.954386 0
M  V30 43 H 2.726825 -1.468176 1.815234 0
M  V30 44 H 3.175569 0.660784 -0.405736 0
M  V30 45 H 0.962217 0.797093 -1.791183 0
M  V30 46 H -1.469214 0.945272 0.250453 0
M  V30 47 H -3.847025 1.990658 0.683789 0
M  V30 48 H -3.107637 3.745207 2.208842 0
M  V30 49 H -1.985146 4.328895 4.383699 0
M  V30 50 H -2.565714 -0.411122 3.197471 0
M  V30 51 H -6.352443 -2.036581 0.508337 0
M  V30 52 H -2.505852 -3.294970 -2.033018 0
M  V30 53 H -0.995090 -4.059603 -3.162455 0
M  V30 54 H 0.856715 -2.306860 -4.841486 0
M  V30 55 H -0.833972 -2.990596 -5.211997 0
M  V30 56 H 0.071870 -5.252090 -5.234165 0
M  V30 57 H 1.272298 -4.207074 -6.160232 0
M  V30 58 H 1.877982 -3.693813 -2.361977 0
M  V30 59 H 0.968827 -5.216342 -2.372305 0
M  V30 END ATOM
M  V30 BEGIN BOND
M  V30 1 1 1 2
M  V30 2 1 2 3
M  V30 3 1 2 4
M  V30 4 1 4 5
M  V30 5 2 5 6
M  V30 6 1 6 7
M  V30 7 2 7 8
M  V30 8 1 7 9
M  V30 9 1 9 10
M  V30 10 2 10 11
M  V30 11 1 11 12
M  V30 12 2 12 13
M  V30 13 1 13 14
M  V30 14 1 14 15
M  V30 15 2 15 16
M  V30 16 1 16 17
M  V30 17 2 17 18
M  V30 18 1 18 19
M  V30 19 1 18 20
M  V30 20 1 20 21
M  V30 21 2 20 22
M  V30 22 1 13 23
M  V30 23 2 23 24
M  V30 24 1 24 25
M  V30 25 2 25 26
M  V30 26 1 26 27
M  V30 27 2 27 28
M  V30 28 1 28 29
M  V30 29 1 29 30
M  V30 30 1 30 31
M  V30 31 1 31 32
M  V30 32 1 32 33
M  V30 33 1 33 34
M  V30 34 1 28 10
M  V30 35 1 34 30
M  V30 36 1 26 12
M  V30 37 1 22 15
M  V30 38 1 1 35
M  V30 39 1 1 36
M  V30 40 1 1 37
M  V30 41 1 3 38
M  V30 42 1 3 39
M  V30 43 1 3 40
M  V30 44 1 4 41
M  V30 45 1 4 42
M  V30 46 1 5 43
M  V30 47 1 6 44
M  V30 48 1 9 45
M  V30 49 1 11 46
M  V30 50 1 14 47
M  V30 51 1 16 48
M  V30 52 1 17 49
M  V30 53 1 22 50
M  V30 54 1 24 51
M  V30 55 1 27 52
M  V30 56 1 30 53 CFG=3
M  V30 57 1 31 54
M  V30 58 1 31 55
M  V30 59 1 32 56
M  V30 60 1 32 57
M  V30 61 1 34 58
M  V30 62 1 34 59
M  V30 END BOND
M  V30 END CTAB
M  END
>  <Dataset>  (17) 
OralDrugs

>  <Ligand_Instance>  (17) 
nan

>  <PDB_ID>  (17) 
nan

>  <Standardized_SMILES>  (17) 
CN(C)C/C=C/C(=O)Nc1cc2c(Nc3ccc(F)c(Cl)c3)ncnc2cc1O[C@H]1CCOC1

>  <Name>  (17) 
Afatinib

>  <Pocket>  (17) 
nan

>  <ATP_Site>  (17) 
nan

>  <Peripheral>  (17) 
nan

>  <Num_H_Atoms_ProtBoundConf>  (17) 
nan

>  <Num_Resolved_Atoms>  (17) 
nan

>  <Num_Not_Resolved_Atoms>  (17) 
nan

$$$$
CHEMBL10878
     RDKit          3D

  0  0  0  0  0  0  0  0  0  0999 V3000
M  V30 BEGIN CTAB
M  V30 COUNTS 35 36 0 0 0
M  V30 BEGIN ATOM
M  V30 1 C -0.485134 1.798882 2.866981 0
M  V30 2 O -0.429113 0.622777 3.662989 0
M  V30 3 C -0.009674 -0.540486 3.034076 0
M  V30 4 C 0.027345 -1.676254 3.838055 0
M  V30 5 C 0.431369 -2.873220 3.293268 0
M  V30 6 C 0.794353 -2.943799 1.966685 0
M  V30 7 C 1.220118 -4.095238 1.341982 0
M  V30 8 C 1.601241 -4.198531 0.014285 0
M  V30 9 C 1.530203 -3.039831 -0.683979 0
M  V30 10 C 1.121340 -1.784913 -0.205358 0
M  V30 11 C 1.145486 -0.720034 -1.105009 0
M  V30 12 C 0.674616 0.596619 -1.225343 0
M  V30 13 N -0.753304 0.883033 -1.237467 0
M  V30 14 C -1.032210 2.257925 -1.377457 0
M  V30 15 C -2.423892 2.805914 -1.422057 0
M  V30 16 O -0.102691 3.126069 -1.478613 0
M  V30 17 C 0.774259 -1.845483 1.130847 0
M  V30 18 C 0.363962 -0.666857 1.716530 0
M  V30 19 H 0.451023 1.915167 2.286676 0
M  V30 20 H -0.644279 2.723819 3.460432 0
M  V30 21 H -1.314326 1.721038 2.122402 0
M  V30 22 H -0.264056 -1.620835 4.899475 0
M  V30 23 H 0.470683 -3.771564 3.890227 0
M  V30 24 H 1.260644 -4.997682 1.946986 0
M  V30 25 H 1.928330 -5.131359 -0.422563 0
M  V30 26 H 1.836951 -3.140756 -1.742115 0
M  V30 27 H 0.771576 -1.194166 -2.107504 0
M  V30 28 H 2.261244 -0.667476 -1.381657 0
M  V30 29 H 0.937987 0.965539 -2.277394 0
M  V30 30 H 1.240591 1.419576 -0.666490 0
M  V30 31 H -1.530225 0.191824 -1.154535 0
M  V30 32 H -3.078093 2.112115 -1.965288 0
M  V30 33 H -2.751477 2.819057 -0.354665 0
M  V30 34 H -2.452544 3.835063 -1.790330 0
M  V30 35 H 0.321858 0.242611 1.155216 0
M  V30 END ATOM
M  V30 BEGIN BOND
M  V30 1 1 1 2
M  V30 2 1 2 3
M  V30 3 2 3 4
M  V30 4 1 4 5
M  V30 5 2 5 6
M  V30 6 1 6 7
M  V30 7 2 7 8
M  V30 8 1 8 9
M  V30 9 2 9 10
M  V30 10 1 10 11
M  V30 11 1 11 12
M  V30 12 1 12 13
M  V30 13 1 13 14
M  V30 14 1 14 15
M  V30 15 2 14 16
M  V30 16 1 10 17
M  V30 17 2 17 18
M  V30 18 1 18 3
M  V30 19 1 17 6
M  V30 20 1 1 19
M  V30 21 1 1 20
M  V30 22 1 1 21
M  V30 23 1 4 22
M  V30 24 1 5 23
M  V30 25 1 7 24
M  V30 26 1 8 25
M  V30 27 1 9 26
M  V30 28 1 11 27
M  V30 29 1 11 28
M  V30 30 1 12 29
M  V30 31 1 12 30
M  V30 32 1 13 31
M  V30 33 1 15 32
M  V30 34 1 15 33
M  V30 35 1 15 34
M  V30 36 1 18 35
M  V30 END BOND
M  V30 END CTAB
M  END
>  <Dataset>  (18) 
OralDrugs

>  <Ligand_Instance>  (18) 
nan

>  <PDB_ID>  (18) 
nan

>  <Standardized_SMILES>  (18) 
COc1ccc2cccc(CCNC(C)=O)c2c1

>  <Name>  (18) 
Agomelatine

>  <Pocket>  (18) 
nan

>  <ATP_Site>  (18) 
nan

>  <Peripheral>  (18) 
nan

>  <Num_H_Atoms_ProtBoundConf>  (18) 
nan

>  <Num_Resolved_Atoms>  (18) 
nan

>  <Num_Not_Resolved_Atoms>  (18) 
nan

$$$$
CHEMBL714
     RDKit          3D

  0  0  0  0  0  0  0  0  0  0999 V3000
M  V30 BEGIN CTAB
M  V30 COUNTS 38 38 0 0 0
M  V30 BEGIN ATOM
M  V30 1 C -2.129780 -3.212090 0.240435 0
M  V30 2 C -1.148650 -3.310740 1.381067 0
M  V30 3 C -1.904942 -2.930343 2.630606 0
M  V30 4 C -0.918240 -4.836234 1.534820 0
M  V30 5 N 0.110194 -2.767228 1.236086 0
M  V30 6 C 0.453047 -1.437275 1.105955 0
M  V30 7 C 0.096001 -0.681220 -0.129297 0
M  V30 8 O -1.228812 -0.551669 -0.423223 0
M  V30 9 C 0.690805 0.707329 -0.108187 0
M  V30 10 C 0.219755 1.458993 -1.187877 0
M  V30 11 C 0.633181 2.780122 -1.386179 0
M  V30 12 C 1.521410 3.355567 -0.502943 0
M  V30 13 O 1.944048 4.652036 -0.674252 0
M  V30 14 C 1.953036 2.579665 0.536790 0
M  V30 15 C 2.916331 3.156952 1.512109 0
M  V30 16 O 4.213913 3.197548 0.961219 0
M  V30 17 C 1.572108 1.275371 0.770428 0
M  V30 18 H -1.681882 -3.188684 -0.752345 0
M  V30 19 H -2.758133 -4.166768 0.224883 0
M  V30 20 H -2.929101 -2.437847 0.414644 0
M  V30 21 H -1.545535 -1.991560 3.097037 0
M  V30 22 H -2.989776 -2.796635 2.446072 0
M  V30 23 H -1.831069 -3.692235 3.432177 0
M  V30 24 H -0.741302 -5.236601 0.520563 0
M  V30 25 H -1.793573 -5.297265 1.984579 0
M  V30 26 H 0.020418 -4.993494 2.112020 0
M  V30 27 H 0.912573 -3.440711 1.152762 0
M  V30 28 H 1.595563 -1.398828 1.128290 0
M  V30 29 H 0.236494 -0.803502 2.037991 0
M  V30 30 H 0.642309 -1.183311 -0.974722 0
M  V30 31 H -1.691759 -0.246489 0.390435 0
M  V30 32 H -0.481584 1.112161 -1.946497 0
M  V30 33 H 0.276597 3.370058 -2.215254 0
M  V30 34 H 1.261531 5.320367 -1.008948 0
M  V30 35 H 2.641320 4.221260 1.655006 0
M  V30 36 H 2.901919 2.684301 2.496746 0
M  V30 37 H 4.575174 2.292683 0.838958 0
M  V30 38 H 1.861128 0.615184 1.550225 0
M  V30 END ATOM
M  V30 BEGIN BOND
M  V30 1 1 1 2
M  V30 2 1 2 3
M  V30 3 1 2 4
M  V30 4 1 2 5
M  V30 5 1 5 6
M  V30 6 1 6 7
M  V30 7 1 7 8
M  V30 8 1 7 9
M  V30 9 2 9 10
M  V30 10 1 10 11
M  V30 11 2 11 12
M  V30 12 1 12 13
M  V30 13 1 12 14
M  V30 14 1 14 15
M  V30 15 1 15 16
M  V30 16 2 14 17
M  V30 17 1 17 9
M  V30 18 1 1 18
M  V30 19 1 1 19
M  V30 20 1 1 20
M  V30 21 1 3 21
M  V30 22 1 3 22
M  V30 23 1 3 23
M  V30 24 1 4 24
M  V30 25 1 4 25
M  V30 26 1 4 26
M  V30 27 1 5 27
M  V30 28 1 6 28
M  V30 29 1 6 29
M  V30 30 1 7 30
M  V30 31 1 8 31
M  V30 32 1 10 32
M  V30 33 1 11 33
M  V30 34 1 13 34
M  V30 35 1 15 35
M  V30 36 1 15 36
M  V30 37 1 16 37
M  V30 38 1 17 38
M  V30 END BOND
M  V30 END CTAB
M  END
>  <Dataset>  (19) 
OralDrugs

>  <Ligand_Instance>  (19) 
nan

>  <PDB_ID>  (19) 
nan

>  <Standardized_SMILES>  (19) 
CC(C)(C)NCC(O)c1ccc(O)c(CO)c1

>  <Name>  (19) 
Albuterol

>  <Pocket>  (19) 
nan

>  <ATP_Site>  (19) 
nan

>  <Peripheral>  (19) 
nan

>  <Num_H_Atoms_ProtBoundConf>  (19) 
nan

>  <Num_Resolved_Atoms>  (19) 
nan

>  <Num_Not_Resolved_Atoms>  (19) 
nan

$$$$
CHEMBL1738797
     RDKit          3D

  0  0  0  0  0  0  0  0  0  0999 V3000
M  V30 BEGIN CTAB
M  V30 COUNTS 70 75 0 0 0
M  V30 BEGIN ATOM
M  V30 1 C 1.141587 -3.334589 4.100308 0
M  V30 2 C 0.649818 -3.963929 2.825777 0
M  V30 3 C 0.591179 -3.016500 1.681454 0
M  V30 4 C 1.634581 -3.079993 0.754895 0
M  V30 5 C 1.673652 -2.237995 -0.329346 0
M  V30 6 C 0.694393 -1.292175 -0.561275 0
M  V30 7 C -0.317299 -1.280676 0.398940 0
M  V30 8 C -0.419009 -2.094976 1.508650 0
M  V30 9 N -1.514101 -1.980088 2.406622 0
M  V30 10 C -1.635090 -1.612134 3.807829 0
M  V30 11 C -2.865861 -0.848004 4.134091 0
M  V30 12 C -3.563059 -0.180681 3.002115 0
M  V30 13 N -3.031739 1.072904 2.574772 0
M  V30 14 C -2.968583 2.083631 3.609205 0
M  V30 15 C -2.445369 3.356819 2.984014 0
M  V30 16 O -3.112359 3.742519 1.837026 0
M  V30 17 C -4.267163 2.989917 1.691328 0
M  V30 18 C -3.849745 1.548602 1.456825 0
M  V30 19 C -3.688188 -1.074652 1.785495 0
M  V30 20 C -2.828496 -2.290541 1.875267 0
M  V30 21 C 0.613011 -0.336378 -1.670871 0
M  V30 22 C -0.688326 -0.381528 -2.417982 0
M  V30 23 C 0.769550 1.050556 -1.044328 0
M  V30 24 C 1.785926 -0.534769 -2.556483 0
M  V30 25 N 1.967533 0.213100 -3.663151 0
M  V30 26 C 3.104534 -0.192758 -4.256137 0
M  V30 27 C 3.804117 0.182099 -5.399660 0
M  V30 28 C 4.995000 -0.431116 -5.787244 0
M  V30 29 C 5.669189 -0.001802 -6.974497 0
M  V30 30 N 6.208754 0.339757 -7.952935 0
M  V30 31 C 5.494408 -1.449826 -5.000943 0
M  V30 32 C 4.858772 -1.870424 -3.862170 0
M  V30 33 C 3.686841 -1.218961 -3.540674 0
M  V30 34 C 2.839820 -1.420647 -2.471405 0
M  V30 35 C 2.759535 -2.296890 -1.303792 0
M  V30 36 O 3.680400 -3.142625 -1.140125 0
M  V30 37 H 0.442805 -3.543690 4.908118 0
M  V30 38 H 2.127733 -3.847519 4.325043 0
M  V30 39 H 1.322126 -2.259524 3.890674 0
M  V30 40 H 1.264838 -4.862679 2.528233 0
M  V30 41 H -0.358187 -4.399147 3.033966 0
M  V30 42 H 2.441869 -3.817339 0.893456 0
M  V30 43 H -1.115991 -0.561298 0.276435 0
M  V30 44 H -1.654320 -2.574969 4.359554 0
M  V30 45 H -0.714000 -1.066738 4.172467 0
M  V30 46 H -3.623545 -1.558765 4.583880 0
M  V30 47 H -2.649748 -0.113667 4.933319 0
M  V30 48 H -4.621100 0.030671 3.337467 0
M  V30 49 H -2.172614 1.754577 4.317884 0
M  V30 50 H -3.893464 2.219219 4.171662 0
M  V30 51 H -2.588367 4.209719 3.710720 0
M  V30 52 H -1.350836 3.284054 2.767786 0
M  V30 53 H -4.849289 3.313857 0.791286 0
M  V30 54 H -4.881940 3.032493 2.601432 0
M  V30 55 H -3.235402 1.452137 0.546788 0
M  V30 56 H -4.743072 0.899320 1.357001 0
M  V30 57 H -4.746559 -1.426559 1.624776 0
M  V30 58 H -3.431768 -0.549833 0.845957 0
M  V30 59 H -2.758470 -2.694649 0.822353 0
M  V30 60 H -3.289056 -3.058155 2.537485 0
M  V30 61 H -0.896935 -1.410657 -2.740194 0
M  V30 62 H -0.533929 0.218735 -3.347960 0
M  V30 63 H -1.495607 0.120476 -1.874854 0
M  V30 64 H 0.095189 1.110023 -0.147879 0
M  V30 65 H 1.816921 1.242075 -0.740393 0
M  V30 66 H 0.457936 1.843820 -1.731485 0
M  V30 67 H 1.422936 0.999668 -4.116785 0
M  V30 68 H 3.417324 0.982577 -6.022312 0
M  V30 69 H 6.423208 -1.949935 -5.276262 0
M  V30 70 H 5.224874 -2.667870 -3.222707 0
M  V30 END ATOM
M  V30 BEGIN BOND
M  V30 1 1 1 2
M  V30 2 1 2 3
M  V30 3 2 3 4
M  V30 4 1 4 5
M  V30 5 2 5 6
M  V30 6 1 6 7
M  V30 7 2 7 8
M  V30 8 1 8 9
M  V30 9 1 9 10
M  V30 10 1 10 11
M  V30 11 1 11 12
M  V30 12 1 12 13
M  V30 13 1 13 14
M  V30 14 1 14 15
M  V30 15 1 15 16
M  V30 16 1 16 17
M  V30 17 1 17 18
M  V30 18 1 12 19
M  V30 19 1 19 20
M  V30 20 1 6 21
M  V30 21 1 21 22
M  V30 22 1 21 23
M  V30 23 1 21 24
M  V30 24 1 24 25
M  V30 25 1 25 26
M  V30 26 2 26 27
M  V30 27 1 27 28
M  V30 28 1 28 29
M  V30 29 3 29 30
M  V30 30 2 28 31
M  V30 31 1 31 32
M  V30 32 2 32 33
M  V30 33 1 33 34
M  V30 34 1 34 35
M  V30 35 2 35 36
M  V30 36 1 8 3
M  V30 37 1 20 9
M  V30 38 2 34 24
M  V30 39 1 35 5
M  V30 40 1 18 13
M  V30 41 1 33 26
M  V30 42 1 1 37
M  V30 43 1 1 38
M  V30 44 1 1 39
M  V30 45 1 2 40
M  V30 46 1 2 41
M  V30 47 1 4 42
M  V30 48 1 7 43
M  V30 49 1 10 44
M  V30 50 1 10 45
M  V30 51 1 11 46
M  V30 52 1 11 47
M  V30 53 1 12 48
M  V30 54 1 14 49
M  V30 55 1 14 50
M  V30 56 1 15 51
M  V30 57 1 15 52
M  V30 58 1 17 53
M  V30 59 1 17 54
M  V30 60 1 18 55
M  V30 61 1 18 56
M  V30 62 1 19 57
M  V30 63 1 19 58
M  V30 64 1 20 59
M  V30 65 1 20 60
M  V30 66 1 22 61
M  V30 67 1 22 62
M  V30 68 1 22 63
M  V30 69 1 23 64
M  V30 70 1 23 65
M  V30 71 1 23 66
M  V30 72 1 25 67
M  V30 73 1 27 68
M  V30 74 1 31 69
M  V30 75 1 32 70
M  V30 END BOND
M  V30 END CTAB
M  END
>  <Dataset>  (20) 
OralDrugs

>  <Ligand_Instance>  (20) 
nan

>  <PDB_ID>  (20) 
nan

>  <Standardized_SMILES>  (20) 
CCc1cc2c(cc1N1CCC(N3CCOCC3)CC1)C(C)(C)c1[nH]c3cc(C#N)ccc3c1C2=O

>  <Name>  (20) 
Alectinib

>  <Pocket>  (20) 
nan

>  <ATP_Site>  (20) 
nan

>  <Peripheral>  (20) 
nan

>  <Num_H_Atoms_ProtBoundConf>  (20) 
nan

>  <Num_Resolved_Atoms>  (20) 
nan

>  <Num_Not_Resolved_Atoms>  (20) 
nan

$$$$
CHEMBL675
     RDKit          3D

  0  0  0  0  0  0  0  0  0  0999 V3000
M  V30 BEGIN CTAB
M  V30 COUNTS 27 26 0 0 0
M  V30 BEGIN ATOM
M  V30 1 N -0.320271 -0.948809 3.692718 0
M  V30 2 C -0.932985 -1.736200 2.648590 0
M  V30 3 C -1.630316 -0.950205 1.613614 0
M  V30 4 C -0.905305 0.024189 0.797539 0
M  V30 5 C 0.193178 -0.393427 -0.089612 0
M  V30 6 O -0.293561 -1.323603 -1.020986 0
M  V30 7 P 1.701977 -1.002303 0.587699 0
M  V30 8 O 2.141582 -0.402490 1.888264 0
M  V30 9 O 2.962058 -0.579342 -0.514202 0
M  V30 10 O 1.779014 -2.715804 0.605048 0
M  V30 11 P 0.614062 1.107186 -1.088317 0
M  V30 12 O -0.011290 2.347989 -0.473498 0
M  V30 13 O -0.011056 0.985617 -2.642025 0
M  V30 14 O 2.280008 1.376424 -1.101528 0
M  V30 15 H 0.556595 -1.435429 3.976429 0
M  V30 16 H -0.081045 0.015521 3.448610 0
M  V30 17 H -1.763345 -2.294144 3.203403 0
M  V30 18 H -0.268067 -2.531972 2.334418 0
M  V30 19 H -2.174161 -1.679343 0.959624 0
M  V30 20 H -2.484736 -0.426427 2.150909 0
M  V30 21 H -0.548054 0.927898 1.357368 0
M  V30 22 H -1.676633 0.489940 0.098062 0
M  V30 23 H 0.200288 -1.206396 -1.863115 0
M  V30 24 H 3.764417 -1.073276 -0.176011 0
M  V30 25 H 1.105336 -3.004956 -0.065234 0
M  V30 26 H -0.883424 0.529615 -2.634523 0
M  V30 27 H 2.531390 1.755384 -0.215008 0
M  V30 END ATOM
M  V30 BEGIN BOND
M  V30 1 1 1 2
M  V30 2 1 2 3
M  V30 3 1 3 4
M  V30 4 1 4 5
M  V30 5 1 5 6
M  V30 6 1 5 7
M  V30 7 2 7 8
M  V30 8 1 7 9
M  V30 9 1 7 10
M  V30 10 1 5 11
M  V30 11 2 11 12
M  V30 12 1 11 13
M  V30 13 1 11 14
M  V30 14 1 1 15
M  V30 15 1 1 16
M  V30 16 1 2 17
M  V30 17 1 2 18
M  V30 18 1 3 19
M  V30 19 1 3 20
M  V30 20 1 4 21
M  V30 21 1 4 22
M  V30 22 1 6 23
M  V30 23 1 9 24
M  V30 24 1 10 25
M  V30 25 1 13 26
M  V30 26 1 14 27
M  V30 END BOND
M  V30 END CTAB
M  END
>  <Dataset>  (21) 
OralDrugs

>  <Ligand_Instance>  (21) 
nan

>  <PDB_ID>  (21) 
nan

>  <Standardized_SMILES>  (21) 
NCCCC(O)(P(=O)(O)O)P(=O)(O)O

>  <Name>  (21) 
Alendronate Sodium

>  <Pocket>  (21) 
nan

>  <ATP_Site>  (21) 
nan

>  <Peripheral>  (21) 
nan

>  <Num_H_Atoms_ProtBoundConf>  (21) 
nan

>  <Num_Resolved_Atoms>  (21) 
nan

>  <Num_Not_Resolved_Atoms>  (21) 
nan

$$$$
CHEMBL709
     RDKit          3D

  0  0  0  0  0  0  0  0  0  0999 V3000
M  V30 BEGIN CTAB
M  V30 COUNTS 55 57 0 0 0
M  V30 BEGIN ATOM
M  V30 1 C -0.776504 -4.065309 3.786081 0
M  V30 2 O -0.823321 -4.736411 2.532931 0
M  V30 3 C -0.165659 -4.142695 1.459214 0
M  V30 4 C 0.483486 -2.946282 1.699314 0
M  V30 5 C 1.153618 -2.320563 0.648961 0
M  V30 6 N 1.798924 -1.153145 0.826271 0
M  V30 7 C 2.463950 -0.504882 -0.174415 0
M  V30 8 N 3.035757 0.699327 0.319403 0
M  V30 9 C 4.405514 0.805367 0.818496 0
M  V30 10 C 2.181812 1.869069 0.327898 0
M  V30 11 C 1.797200 2.325934 1.710590 0
M  V30 12 C 0.892562 3.539132 1.510228 0
M  V30 13 N -0.284553 3.174285 0.741713 0
M  V30 14 C -1.231107 2.209216 1.140823 0
M  V30 15 O -1.106424 1.588641 2.229835 0
M  V30 16 C -2.451338 1.697563 0.534212 0
M  V30 17 C -3.692272 2.111040 1.337910 0
M  V30 18 C -4.751743 1.583328 0.357271 0
M  V30 19 C -4.087110 1.911784 -0.962544 0
M  V30 20 O -2.767328 2.255522 -0.701507 0
M  V30 21 N 2.490063 -1.050150 -1.427279 0
M  V30 22 C 1.851901 -2.229006 -1.654362 0
M  V30 23 N 1.891970 -2.775626 -2.963333 0
M  V30 24 C 1.189576 -2.856096 -0.621331 0
M  V30 25 C 0.528641 -4.049660 -0.814183 0
M  V30 26 C -0.147001 -4.707198 0.189880 0
M  V30 27 O -0.833511 -5.899021 0.091335 0
M  V30 28 C -0.946998 -6.647052 -1.102686 0
M  V30 29 H 0.285110 -3.919932 4.080793 0
M  V30 30 H -1.293724 -4.707948 4.542651 0
M  V30 31 H -1.226891 -3.068814 3.774981 0
M  V30 32 H 0.516113 -2.442643 2.656767 0
M  V30 33 H 4.449147 1.122985 1.873859 0
M  V30 34 H 5.006549 1.533464 0.214435 0
M  V30 35 H 4.898938 -0.187347 0.747559 0
M  V30 36 H 2.783201 2.657377 -0.209638 0
M  V30 37 H 1.309493 1.699784 -0.323156 0
M  V30 38 H 2.672108 2.568095 2.324068 0
M  V30 39 H 1.212937 1.525658 2.189887 0
M  V30 40 H 0.586053 3.945691 2.492087 0
M  V30 41 H 1.477419 4.252387 0.896992 0
M  V30 42 H -0.554544 3.593267 -0.195420 0
M  V30 43 H -2.509691 0.586649 0.460132 0
M  V30 44 H -3.743215 1.628539 2.315995 0
M  V30 45 H -3.805590 3.205015 1.346631 0
M  V30 46 H -5.720307 2.069024 0.469836 0
M  V30 47 H -4.830265 0.468193 0.475343 0
M  V30 48 H -4.623879 2.769882 -1.397740 0
M  V30 49 H -4.164931 1.072688 -1.677019 0
M  V30 50 H 0.886312 -2.927076 -3.265257 0
M  V30 51 H 2.692289 -3.018771 -3.591051 0
M  V30 52 H 0.523172 -4.517638 -1.792456 0
M  V30 53 H -1.938287 -7.163221 -1.028819 0
M  V30 54 H -0.130454 -7.395386 -1.135395 0
M  V30 55 H -0.912089 -5.977968 -1.979545 0
M  V30 END ATOM
M  V30 BEGIN BOND
M  V30 1 1 1 2
M  V30 2 1 2 3
M  V30 3 2 3 4
M  V30 4 1 4 5
M  V30 5 2 5 6
M  V30 6 1 6 7
M  V30 7 1 7 8
M  V30 8 1 8 9
M  V30 9 1 8 10
M  V30 10 1 10 11
M  V30 11 1 11 12
M  V30 12 1 12 13
M  V30 13 1 13 14
M  V30 14 2 14 15
M  V30 15 1 14 16
M  V30 16 1 16 17
M  V30 17 1 17 18
M  V30 18 1 18 19
M  V30 19 1 19 20
M  V30 20 2 7 21
M  V30 21 1 21 22
M  V30 22 1 22 23
M  V30 23 2 22 24
M  V30 24 1 24 25
M  V30 25 2 25 26
M  V30 26 1 26 27
M  V30 27 1 27 28
M  V30 28 1 26 3
M  V30 29 1 24 5
M  V30 30 1 20 16
M  V30 31 1 1 29
M  V30 32 1 1 30
M  V30 33 1 1 31
M  V30 34 1 4 32
M  V30 35 1 9 33
M  V30 36 1 9 34
M  V30 37 1 9 35
M  V30 38 1 10 36
M  V30 39 1 10 37
M  V30 40 1 11 38
M  V30 41 1 11 39
M  V30 42 1 12 40
M  V30 43 1 12 41
M  V30 44 1 13 42
M  V30 45 1 16 43
M  V30 46 1 17 44
M  V30 47 1 17 45
M  V30 48 1 18 46
M  V30 49 1 18 47
M  V30 50 1 19 48
M  V30 51 1 19 49
M  V30 52 1 23 50
M  V30 53 1 23 51
M  V30 54 1 25 52
M  V30 55 1 28 53
M  V30 56 1 28 54
M  V30 57 1 28 55
M  V30 END BOND
M  V30 END CTAB
M  END
>  <Dataset>  (22) 
OralDrugs

>  <Ligand_Instance>  (22) 
nan

>  <PDB_ID>  (22) 
nan

>  <Standardized_SMILES>  (22) 
COc1cc2nc(N(C)CCCNC(=O)C3CCCO3)nc(N)c2cc1OC

>  <Name>  (22) 
Alfuzosin

>  <Pocket>  (22) 
nan

>  <ATP_Site>  (22) 
nan

>  <Peripheral>  (22) 
nan

>  <Num_H_Atoms_ProtBoundConf>  (22) 
nan

>  <Num_Resolved_Atoms>  (22) 
nan

>  <Num_Not_Resolved_Atoms>  (22) 
nan

$$$$
CHEMBL1639
     RDKit          3D

  0  0  0  0  0  0  0  0  0  0999 V3000
M  V30 BEGIN CTAB
M  V30 COUNTS 92 92 0 0 0
M  V30 BEGIN ATOM
M  V30 1 C 4.123098 -4.875835 3.364651 0
M  V30 2 O 4.377315 -6.073942 2.888483 0
M  V30 3 C 4.058867 -6.691949 1.777945 0
M  V30 4 C 4.397001 -6.217969 0.411415 0
M  V30 5 C 3.817443 -4.969263 -0.104377 0
M  V30 6 O 4.098190 -3.785553 0.563073 0
M  V30 7 C 3.581878 -2.552258 0.162964 0
M  V30 8 C 2.746939 -2.464343 -0.957652 0
M  V30 9 C 2.186492 -1.283082 -1.426589 0
M  V30 10 C 1.395831 -1.481476 -2.638212 0
M  V30 11 C 0.046002 -2.065415 -2.499328 0 CFG=1
M  V30 12 C -1.048493 -1.471613 -1.767761 0
M  V30 13 C -1.691476 -0.209313 -2.017292 0 CFG=2
M  V30 14 N -2.220471 -0.021064 -3.363232 0
M  V30 15 C -1.393423 1.103799 -1.420872 0 CFG=1
M  V30 16 O -2.618818 1.857590 -1.461538 0
M  V30 17 C -1.037853 1.110607 0.056483 0
M  V30 18 C -0.864831 2.479581 0.600944 0 CFG=2
M  V30 19 C -2.161231 3.211965 0.415735 0
M  V30 20 O -2.367432 4.294165 -0.195578 0
M  V30 21 N -3.372599 2.685312 0.970062 0
M  V30 22 C -4.677879 3.334413 0.836536 0
M  V30 23 C -5.710804 2.472551 1.533133 0
M  V30 24 C -5.378510 2.318594 3.000742 0
M  V30 25 C -7.105950 3.025269 1.378975 0
M  V30 26 C -5.711997 1.088351 0.942264 0
M  V30 27 N -5.979026 1.021076 -0.451864 0
M  V30 28 O -5.528523 -0.081549 1.382502 0
M  V30 29 C 0.310840 3.290557 0.262798 0
M  V30 30 C 0.166439 4.660482 0.944515 0
M  V30 31 C 1.552727 2.680924 0.883926 0
M  V30 32 C -0.314274 -2.631298 -3.876269 0
M  V30 33 C -1.654423 -3.286515 -3.921930 0
M  V30 34 C 0.728022 -3.691799 -4.169733 0
M  V30 35 C 2.507426 -0.131891 -0.696988 0
M  V30 36 C 3.331825 -0.255319 0.397858 0
M  V30 37 C 3.887519 -1.422012 0.864450 0
M  V30 38 O 4.702222 -1.419215 1.980018 0
M  V30 39 C 4.980165 -0.211410 2.666214 0
M  V30 40 H 3.026187 -4.631309 3.390221 0
M  V30 41 H 4.369697 -4.866066 4.528764 0
M  V30 42 H 4.696597 -4.053017 2.963492 0
M  V30 43 H 4.490961 -7.770909 1.871853 0
M  V30 44 H 2.929734 -6.989901 1.789242 0
M  V30 45 H 4.041094 -7.053456 -0.291325 0
M  V30 46 H 5.518627 -6.275698 0.266710 0
M  V30 47 H 2.706256 -5.144607 -0.203262 0
M  V30 48 H 4.123136 -4.845111 -1.194726 0
M  V30 49 H 2.584022 -3.431895 -1.422055 0
M  V30 50 H 1.977725 -2.189643 -3.309407 0
M  V30 51 H 1.312317 -0.501770 -3.192012 0
M  V30 52 H 0.264323 -3.062975 -1.938930 0
M  V30 53 H -0.666782 -1.404439 -0.676817 0
M  V30 54 H -1.828605 -2.304910 -1.613234 0
M  V30 55 H -2.773464 -0.399742 -1.475998 0
M  V30 56 H -3.124435 -0.451864 -3.544416 0
M  V30 57 H -2.094858 0.923981 -3.744095 0
M  V30 58 H -0.642653 1.644440 -2.024645 0
M  V30 59 H -2.584851 2.470931 -2.238365 0
M  V30 60 H -1.864389 0.621288 0.633178 0
M  V30 61 H -0.106955 0.550836 0.189658 0
M  V30 62 H -0.824793 2.337790 1.734938 0
M  V30 63 H -3.280265 1.770653 1.500809 0
M  V30 64 H -4.634137 4.292882 1.415717 0
M  V30 65 H -4.944113 3.471258 -0.213490 0
M  V30 66 H -6.250906 1.816725 3.498936 0
M  V30 67 H -5.112623 3.276895 3.459533 0
M  V30 68 H -4.560154 1.553491 3.043736 0
M  V30 69 H -7.372034 3.730787 2.197538 0
M  V30 70 H -7.273954 3.452808 0.380849 0
M  V30 71 H -7.812826 2.157240 1.493330 0
M  V30 72 H -6.091251 1.205625 -1.476361 0
M  V30 73 H -6.351381 0.292918 -1.096660 0
M  V30 74 H 0.500103 3.471681 -0.791187 0
M  V30 75 H -0.231396 4.583390 1.958133 0
M  V30 76 H -0.358187 5.367390 0.273335 0
M  V30 77 H 1.205231 5.061537 1.040014 0
M  V30 78 H 1.833373 3.281105 1.773473 0
M  V30 79 H 1.286480 1.640872 1.191813 0
M  V30 80 H 2.379689 2.706273 0.139715 0
M  V30 81 H -0.161522 -1.878870 -4.672064 0
M  V30 82 H -1.945473 -3.770615 -2.973500 0
M  V30 83 H -2.415133 -2.600285 -4.347181 0
M  V30 84 H -1.661550 -4.154683 -4.660804 0
M  V30 85 H 0.256927 -4.571567 -4.699164 0
M  V30 86 H 1.513999 -3.351559 -4.885871 0
M  V30 87 H 1.216381 -4.083827 -3.268632 0
M  V30 88 H 2.037960 0.723484 -1.129457 0
M  V30 89 H 3.561938 0.659518 0.927240 0
M  V30 90 H 5.622799 0.461863 2.060478 0
M  V30 91 H 3.996717 0.275927 2.872317 0
M  V30 92 H 5.538111 -0.460450 3.595514 0
M  V30 END ATOM
M  V30 BEGIN BOND
M  V30 1 1 1 2
M  V30 2 1 2 3
M  V30 3 1 3 4
M  V30 4 1 4 5
M  V30 5 1 5 6
M  V30 6 1 6 7
M  V30 7 2 7 8
M  V30 8 1 8 9
M  V30 9 1 9 10
M  V30 10 1 10 11
M  V30 11 1 11 12
M  V30 12 1 12 13
M  V30 13 1 13 14
M  V30 14 1 13 15
M  V30 15 1 15 16
M  V30 16 1 15 17
M  V30 17 1 17 18
M  V30 18 1 18 19
M  V30 19 2 19 20
M  V30 20 1 19 21
M  V30 21 1 21 22
M  V30 22 1 22 23
M  V30 23 1 23 24
M  V30 24 1 23 25
M  V30 25 1 23 26
M  V30 26 1 26 27
M  V30 27 2 26 28
M  V30 28 1 18 29
M  V30 29 1 29 30
M  V30 30 1 29 31
M  V30 31 1 11 32
M  V30 32 1 32 33
M  V30 33 1 32 34
M  V30 34 2 9 35
M  V30 35 1 35 36
M  V30 36 2 36 37
M  V30 37 1 37 38
M  V30 38 1 38 39
M  V30 39 1 37 7
M  V30 40 1 1 40
M  V30 41 1 1 41
M  V30 42 1 1 42
M  V30 43 1 3 43
M  V30 44 1 3 44
M  V30 45 1 4 45
M  V30 46 1 4 46
M  V30 47 1 5 47
M  V30 48 1 5 48
M  V30 49 1 8 49
M  V30 50 1 10 50
M  V30 51 1 10 51
M  V30 52 1 11 52 CFG=1
M  V30 53 1 12 53
M  V30 54 1 12 54
M  V30 55 1 13 55 CFG=1
M  V30 56 1 14 56
M  V30 57 1 14 57
M  V30 58 1 15 58 CFG=3
M  V30 59 1 16 59
M  V30 60 1 17 60
M  V30 61 1 17 61
M  V30 62 1 18 62 CFG=1
M  V30 63 1 21 63
M  V30 64 1 22 64
M  V30 65 1 22 65
M  V30 66 1 24 66
M  V30 67 1 24 67
M  V30 68 1 24 68
M  V30 69 1 25 69
M  V30 70 1 25 70
M  V30 71 1 25 71
M  V30 72 1 27 72
M  V30 73 1 27 73
M  V30 74 1 29 74
M  V30 75 1 30 75
M  V30 76 1 30 76
M  V30 77 1 30 77
M  V30 78 1 31 78
M  V30 79 1 31 79
M  V30 80 1 31 80
M  V30 81 1 32 81
M  V30 82 1 33 82
M  V30 83 1 33 83
M  V30 84 1 33 84
M  V30 85 1 34 85
M  V30 86 1 34 86
M  V30 87 1 34 87
M  V30 88 1 35 88
M  V30 89 1 36 89
M  V30 90 1 39 90
M  V30 91 1 39 91
M  V30 92 1 39 92
M  V30 END BOND
M  V30 END CTAB
M  END
>  <Dataset>  (23) 
OralDrugs

>  <Ligand_Instance>  (23) 
nan

>  <PDB_ID>  (23) 
nan

>  <Standardized_SMILES>  (23) 
COCCCOc1cc(C[C@@H](C[C@H](N)[C@@H](O)C[C@H](C(=O)NCC(C)(C)C(N)=O)C(C)C)C(C)C)ccc1OC

>  <Name>  (23) 
Aliskiren

>  <Pocket>  (23) 
nan

>  <ATP_Site>  (23) 
nan

>  <Peripheral>  (23) 
nan

>  <Num_H_Atoms_ProtBoundConf>  (23) 
nan

>  <Num_Resolved_Atoms>  (23) 
nan

>  <Num_Not_Resolved_Atoms>  (23) 
nan

$$$$
CHEMBL1467
     RDKit          3D

  0  0  0  0  0  0  0  0  0  0999 V3000
M  V30 BEGIN CTAB
M  V30 COUNTS 14 15 0 0 0
M  V30 BEGIN ATOM
M  V30 1 O -0.983641 -1.075593 0.747395 0
M  V30 2 C 0.238718 -0.657555 1.228309 0
M  V30 3 N 0.568198 -0.940209 2.493650 0
M  V30 4 C 1.750924 -0.557873 3.022604 0
M  V30 5 N 2.624660 0.128888 2.251860 0
M  V30 6 C 2.309884 0.423895 0.971263 0
M  V30 7 N 2.940538 1.075617 -0.033286 0
M  V30 8 N 2.193453 1.098254 -1.126249 0
M  V30 9 C 1.025107 0.462826 -0.908330 0
M  V30 10 C 1.108247 0.045658 0.404515 0
M  V30 11 H -1.119264 -1.655326 -0.049389 0
M  V30 12 H 2.120600 -0.729344 4.023821 0
M  V30 13 H 3.886452 1.509893 0.020622 0
M  V30 14 H 0.163978 0.270125 -1.539595 0
M  V30 END ATOM
M  V30 BEGIN BOND
M  V30 1 1 1 2
M  V30 2 2 2 3
M  V30 3 1 3 4
M  V30 4 2 4 5
M  V30 5 1 5 6
M  V30 6 1 6 7
M  V30 7 1 7 8
M  V30 8 2 8 9
M  V30 9 1 9 10
M  V30 10 1 10 2
M  V30 11 2 10 6
M  V30 12 1 1 11
M  V30 13 1 4 12
M  V30 14 1 7 13
M  V30 15 1 9 14
M  V30 END BOND
M  V30 END CTAB
M  END
>  <Dataset>  (24) 
OralDrugs

>  <Ligand_Instance>  (24) 
nan

>  <PDB_ID>  (24) 
nan

>  <Standardized_SMILES>  (24) 
Oc1ncnc2[nH]ncc12

>  <Name>  (24) 
Allopurinol

>  <Pocket>  (24) 
nan

>  <ATP_Site>  (24) 
nan

>  <Peripheral>  (24) 
nan

>  <Num_H_Atoms_ProtBoundConf>  (24) 
nan

>  <Num_Resolved_Atoms>  (24) 
nan

>  <Num_Not_Resolved_Atoms>  (24) 
nan

$$$$
CHEMBL1505
     RDKit          3D

  0  0  0  0  0  0  0  0  0  0999 V3000
M  V30 BEGIN CTAB
M  V30 COUNTS 48 50 0 0 0
M  V30 BEGIN ATOM
M  V30 1 C -1.023102 -4.152172 -0.247057 0
M  V30 2 N -0.468644 -2.784997 -0.477157 0
M  V30 3 C 0.794878 -2.826622 0.270504 0
M  V30 4 C -0.239093 -2.649612 -1.874157 0
M  V30 5 C 0.142334 -1.309827 -2.413546 0
M  V30 6 C 1.347371 -0.691319 -1.837116 0
M  V30 7 C 2.635192 -0.949525 -2.311879 0
M  V30 8 N 3.508708 -0.296477 -1.535897 0
M  V30 9 C 2.835683 0.358679 -0.601554 0
M  V30 10 C 3.207342 1.205588 0.424904 0
M  V30 11 C 2.215403 1.779891 1.225757 0
M  V30 12 C 0.820283 1.571429 1.082585 0
M  V30 13 C 0.149754 2.398381 2.060229 0
M  V30 14 S -0.247047 1.813744 3.632062 0
M  V30 15 O -0.846320 2.979784 4.427003 0
M  V30 16 O 0.945526 1.392865 4.452765 0
M  V30 17 N -1.386283 0.557436 3.724848 0
M  V30 18 C -1.041811 -0.641694 3.082326 0
M  V30 19 C -2.174374 -1.028492 2.161032 0
M  V30 20 C -3.221917 0.053114 2.327843 0
M  V30 21 C -2.723770 0.938529 3.432714 0
M  V30 22 C 0.536003 0.714707 0.044100 0
M  V30 23 C 1.487134 0.145511 -0.746929 0
M  V30 24 H -0.170122 -4.837700 -0.362171 0
M  V30 25 H -1.463953 -4.196021 0.767517 0
M  V30 26 H -1.763122 -4.300033 -1.038755 0
M  V30 27 H 0.856626 -3.762248 0.886247 0
M  V30 28 H 1.669956 -2.797330 -0.378149 0
M  V30 29 H 0.799487 -2.005704 0.989346 0
M  V30 30 H 0.522992 -3.405498 -2.215601 0
M  V30 31 H -1.168266 -2.971148 -2.438864 0
M  V30 32 H 0.350338 -1.476299 -3.510853 0
M  V30 33 H -0.736796 -0.616789 -2.317243 0
M  V30 34 H 2.875194 -1.575149 -3.163855 0
M  V30 35 H 4.544594 -0.310072 -1.659981 0
M  V30 36 H 4.265877 1.359874 0.528559 0
M  V30 37 H 2.709042 2.411353 1.970182 0
M  V30 38 H -0.862453 2.718757 1.597091 0
M  V30 39 H 0.621184 3.429417 2.170804 0
M  V30 40 H -0.087322 -0.517016 2.547164 0
M  V30 41 H -0.851043 -1.448268 3.827660 0
M  V30 42 H -1.791507 -1.061823 1.137061 0
M  V30 43 H -2.561775 -2.003425 2.471621 0
M  V30 44 H -3.290188 0.609543 1.348204 0
M  V30 45 H -4.226793 -0.329413 2.537620 0
M  V30 46 H -3.356652 0.750498 4.344061 0
M  V30 47 H -2.859946 2.001321 3.182684 0
M  V30 48 H -0.534580 0.587040 -0.029003 0
M  V30 END ATOM
M  V30 BEGIN BOND
M  V30 1 1 1 2
M  V30 2 1 2 3
M  V30 3 1 2 4
M  V30 4 1 4 5
M  V30 5 1 5 6
M  V30 6 2 6 7
M  V30 7 1 7 8
M  V30 8 1 8 9
M  V30 9 2 9 10
M  V30 10 1 10 11
M  V30 11 2 11 12
M  V30 12 1 12 13
M  V30 13 1 13 14
M  V30 14 2 14 15
M  V30 15 2 14 16
M  V30 16 1 14 17
M  V30 17 1 17 18
M  V30 18 1 18 19
M  V30 19 1 19 20
M  V30 20 1 20 21
M  V30 21 1 12 22
M  V30 22 2 22 23
M  V30 23 1 23 6
M  V30 24 1 23 9
M  V30 25 1 21 17
M  V30 26 1 1 24
M  V30 27 1 1 25
M  V30 28 1 1 26
M  V30 29 1 3 27
M  V30 30 1 3 28
M  V30 31 1 3 29
M  V30 32 1 4 30
M  V30 33 1 4 31
M  V30 34 1 5 32
M  V30 35 1 5 33
M  V30 36 1 7 34
M  V30 37 1 8 35
M  V30 38 1 10 36
M  V30 39 1 11 37
M  V30 40 1 13 38
M  V30 41 1 13 39
M  V30 42 1 18 40
M  V30 43 1 18 41
M  V30 44 1 19 42
M  V30 45 1 19 43
M  V30 46 1 20 44
M  V30 47 1 20 45
M  V30 48 1 21 46
M  V30 49 1 21 47
M  V30 50 1 22 48
M  V30 END BOND
M  V30 END CTAB
M  END
>  <Dataset>  (25) 
OralDrugs

>  <Ligand_Instance>  (25) 
nan

>  <PDB_ID>  (25) 
nan

>  <Standardized_SMILES>  (25) 
CN(C)CCc1c[nH]c2ccc(CS(=O)(=O)N3CCCC3)cc12

>  <Name>  (25) 
Almotriptan

>  <Pocket>  (25) 
nan

>  <ATP_Site>  (25) 
nan

>  <Peripheral>  (25) 
nan

>  <Num_H_Atoms_ProtBoundConf>  (25) 
nan

>  <Num_Resolved_Atoms>  (25) 
nan

>  <Num_Not_Resolved_Atoms>  (25) 
nan

$$$$
CHEMBL376359
     RDKit          3D

  0  0  0  0  0  0  0  0  0  0999 V3000
M  V30 BEGIN CTAB
M  V30 COUNTS 46 48 0 0 0
M  V30 BEGIN ATOM
M  V30 1 C 1.399868 -5.014962 2.280755 0
M  V30 2 N 1.272212 -3.638319 1.821112 0
M  V30 3 C 2.215810 -3.102292 0.996969 0
M  V30 4 O 3.178909 -3.834800 0.659154 0
M  V30 5 C 2.003791 -1.770512 0.610205 0
M  V30 6 C 0.886704 -1.042514 1.048389 0
M  V30 7 N 1.036690 0.246755 0.466893 0
M  V30 8 C 0.855933 0.351481 -0.981812 0
M  V30 9 C 1.838938 1.321514 -1.590354 0
M  V30 10 C 3.015716 1.659959 -0.756656 0
M  V30 11 C 2.812597 1.791873 0.703008 0 CFG=1
M  V30 12 N 3.167317 3.113228 1.210119 0
M  V30 13 C 1.364326 1.556752 1.052927 0
M  V30 14 N -0.023577 -1.606295 1.861413 0
M  V30 15 C -1.090856 -0.741256 2.268739 0
M  V30 16 C -2.257350 -0.621296 1.407581 0
M  V30 17 C -2.271890 0.549551 0.636313 0
M  V30 18 C -3.245997 0.904963 -0.255108 0
M  V30 19 C -4.329158 0.054711 -0.436831 0
M  V30 20 C -4.374640 -1.103287 0.285662 0
M  V30 21 C -3.362405 -1.384974 1.155948 0
M  V30 22 C -3.466064 -2.586360 1.922781 0
M  V30 23 N -3.560918 -3.564020 2.527975 0
M  V30 24 C 0.240226 -2.878297 2.192415 0
M  V30 25 O -0.571893 -3.448444 2.951538 0
M  V30 26 H 0.649722 -5.635173 1.732805 0
M  V30 27 H 2.422473 -5.387911 2.192147 0
M  V30 28 H 1.085028 -4.997648 3.346863 0
M  V30 29 H 2.839409 -1.479982 -0.045793 0
M  V30 30 H 0.951575 -0.652157 -1.462483 0
M  V30 31 H -0.162744 0.694645 -1.224993 0
M  V30 32 H 1.304702 2.248927 -1.909447 0
M  V30 33 H 2.203961 0.863630 -2.536166 0
M  V30 34 H 3.408264 2.651145 -1.123773 0
M  V30 35 H 3.890313 0.963807 -0.929618 0
M  V30 36 H 3.382007 0.997137 1.266861 0
M  V30 37 H 3.085161 3.061029 2.250348 0
M  V30 38 H 2.443065 3.774405 0.854034 0
M  V30 39 H 1.184466 1.595874 2.142284 0
M  V30 40 H 0.767760 2.354817 0.569168 0
M  V30 41 H -0.716492 0.256260 2.610898 0
M  V30 42 H -1.482171 -1.174733 3.254850 0
M  V30 43 H -1.497665 1.328505 0.662772 0
M  V30 44 H -3.276970 1.794465 -0.851593 0
M  V30 45 H -5.140253 0.256635 -1.117671 0
M  V30 46 H -5.187604 -1.773307 0.167273 0
M  V30 END ATOM
M  V30 BEGIN BOND
M  V30 1 1 1 2
M  V30 2 1 2 3
M  V30 3 2 3 4
M  V30 4 1 3 5
M  V30 5 2 5 6
M  V30 6 1 6 7
M  V30 7 1 7 8
M  V30 8 1 8 9
M  V30 9 1 9 10
M  V30 10 1 10 11
M  V30 11 1 11 12
M  V30 12 1 11 13
M  V30 13 1 6 14
M  V30 14 1 14 15
M  V30 15 1 15 16
M  V30 16 2 16 17
M  V30 17 1 17 18
M  V30 18 2 18 19
M  V30 19 1 19 20
M  V30 20 2 20 21
M  V30 21 1 21 22
M  V30 22 3 22 23
M  V30 23 1 14 24
M  V30 24 2 24 25
M  V30 25 1 24 2
M  V30 26 1 13 7
M  V30 27 1 21 16
M  V30 28 1 1 26
M  V30 29 1 1 27
M  V30 30 1 1 28
M  V30 31 1 5 29
M  V30 32 1 8 30
M  V30 33 1 8 31
M  V30 34 1 9 32
M  V30 35 1 9 33
M  V30 36 1 10 34
M  V30 37 1 10 35
M  V30 38 1 11 36 CFG=1
M  V30 39 1 12 37
M  V30 40 1 12 38
M  V30 41 1 13 39
M  V30 42 1 13 40
M  V30 43 1 15 41
M  V30 44 1 15 42
M  V30 45 1 17 43
M  V30 46 1 18 44
M  V30 47 1 19 45
M  V30 48 1 20 46
M  V30 END BOND
M  V30 END CTAB
M  END
>  <Dataset>  (26) 
OralDrugs

>  <Ligand_Instance>  (26) 
nan

>  <PDB_ID>  (26) 
nan

>  <Standardized_SMILES>  (26) 
Cn1c(=O)cc(N2CCC[C@@H](N)C2)n(Cc2ccccc2C#N)c1=O

>  <Name>  (26) 
Alogliptin

>  <Pocket>  (26) 
nan

>  <ATP_Site>  (26) 
nan

>  <Peripheral>  (26) 
nan

>  <Num_H_Atoms_ProtBoundConf>  (26) 
nan

>  <Num_Resolved_Atoms>  (26) 
nan

>  <Num_Not_Resolved_Atoms>  (26) 
nan

$$$$
CHEMBL1110
     RDKit          3D

  0  0  0  0  0  0  0  0  0  0999 V3000
M  V30 BEGIN CTAB
M  V30 COUNTS 40 43 0 0 0
M  V30 BEGIN ATOM
M  V30 1 C -0.059601 -4.608732 -1.157623 0
M  V30 2 C 1.335643 -4.176274 -0.925330 0
M  V30 3 N 2.269011 -4.449975 -1.856891 0
M  V30 4 C 3.432481 -3.965766 -1.414086 0
M  V30 5 N 3.199210 -3.399588 -0.214298 0
M  V30 6 C 1.904619 -3.502701 0.139345 0
M  V30 7 C 1.169010 -3.038546 1.338158 0
M  V30 8 N 0.398773 -1.837531 1.084341 0
M  V30 9 C -0.946680 -1.766121 0.628394 0
M  V30 10 C -1.760668 -0.609017 1.052313 0
M  V30 11 C -1.045753 0.651557 1.271890 0
M  V30 12 C 0.326427 0.663402 1.404734 0
M  V30 13 C 0.697290 1.974495 1.606061 0
M  V30 14 C 1.924472 2.573820 1.800935 0
M  V30 15 C 2.044936 3.933002 1.985560 0
M  V30 16 C 0.904802 4.720755 1.975214 0
M  V30 17 C -0.305359 4.088820 1.777888 0
M  V30 18 C -0.475954 2.732640 1.589094 0
M  V30 19 N -1.510290 1.898427 1.384606 0
M  V30 20 C -2.874215 2.435739 1.319603 0
M  V30 21 C 1.057243 -0.594440 1.310237 0
M  V30 22 O 2.302745 -0.497205 1.442695 0
M  V30 23 H -0.605340 -3.984225 -1.874904 0
M  V30 24 H -0.620092 -4.662782 -0.179478 0
M  V30 25 H -0.074945 -5.662498 -1.524411 0
M  V30 26 H 2.224462 -4.933265 -2.776600 0
M  V30 27 H 4.413690 -3.989754 -1.881556 0
M  V30 28 H 1.833065 -2.835170 2.199568 0
M  V30 29 H 0.469675 -3.840432 1.716880 0
M  V30 30 H -0.918637 -1.756584 -0.501046 0
M  V30 31 H -1.522676 -2.710087 0.855959 0
M  V30 32 H -2.567899 -0.402115 0.300548 0
M  V30 33 H -2.339775 -0.867619 1.989095 0
M  V30 34 H 2.784887 1.905906 1.799550 0
M  V30 35 H 3.041477 4.353140 2.136124 0
M  V30 36 H 1.019153 5.775124 2.120327 0
M  V30 37 H -1.210224 4.693293 1.767543 0
M  V30 38 H -2.919753 3.274408 0.592199 0
M  V30 39 H -3.162780 2.889031 2.312586 0
M  V30 40 H -3.628950 1.678422 1.110605 0
M  V30 END ATOM
M  V30 BEGIN BOND
M  V30 1 1 1 2
M  V30 2 1 2 3
M  V30 3 1 3 4
M  V30 4 2 4 5
M  V30 5 1 5 6
M  V30 6 1 6 7
M  V30 7 1 7 8
M  V30 8 1 8 9
M  V30 9 1 9 10
M  V30 10 1 10 11
M  V30 11 2 11 12
M  V30 12 1 12 13
M  V30 13 2 13 14
M  V30 14 1 14 15
M  V30 15 2 15 16
M  V30 16 1 16 17
M  V30 17 2 17 18
M  V30 18 1 18 19
M  V30 19 1 19 20
M  V30 20 1 12 21
M  V30 21 2 21 22
M  V30 22 2 6 2
M  V30 23 1 21 8
M  V30 24 1 19 11
M  V30 25 1 18 13
M  V30 26 1 1 23
M  V30 27 1 1 24
M  V30 28 1 1 25
M  V30 29 1 3 26
M  V30 30 1 4 27
M  V30 31 1 7 28
M  V30 32 1 7 29
M  V30 33 1 9 30
M  V30 34 1 9 31
M  V30 35 1 10 32
M  V30 36 1 10 33
M  V30 37 1 14 34
M  V30 38 1 15 35
M  V30 39 1 16 36
M  V30 40 1 17 37
M  V30 41 1 20 38
M  V30 42 1 20 39
M  V30 43 1 20 40
M  V30 END BOND
M  V30 END CTAB
M  END
>  <Dataset>  (27) 
OralDrugs

>  <Ligand_Instance>  (27) 
nan

>  <PDB_ID>  (27) 
nan

>  <Standardized_SMILES>  (27) 
Cc1[nH]cnc1CN1CCc2c(c3ccccc3n2C)C1=O

>  <Name>  (27) 
Alosetron

>  <Pocket>  (27) 
nan

>  <ATP_Site>  (27) 
nan

>  <Peripheral>  (27) 
nan

>  <Num_H_Atoms_ProtBoundConf>  (27) 
nan

>  <Num_Resolved_Atoms>  (27) 
nan

>  <Num_Not_Resolved_Atoms>  (27) 
nan

$$$$
CHEMBL2396661
     RDKit          3D

  0  0  0  0  0  0  0  0  0  0999 V3000
M  V30 BEGIN CTAB
M  V30 COUNTS 52 54 0 0 0
M  V30 BEGIN ATOM
M  V30 1 C -3.664624 1.007821 0.826288 0
M  V30 2 C -2.307606 0.413061 0.960874 0
M  V30 3 N -1.343422 1.170766 1.423008 0
M  V30 4 C -0.160309 0.695614 1.555119 0
M  V30 5 N 1.038099 1.283549 2.019538 0
M  V30 6 C 1.821600 1.899555 1.008662 0
M  V30 7 O 1.598511 1.994188 -0.236725 0
M  V30 8 N 3.067901 2.584533 1.075101 0
M  V30 9 C 3.651165 3.123818 -0.138735 0
M  V30 10 C 3.912005 4.562759 0.290842 0
M  V30 11 C 4.113438 4.488661 1.804244 0
M  V30 12 C 4.119941 3.007919 2.013399 0 CFG=1
M  V30 13 C 3.880846 2.595467 3.389391 0
M  V30 14 N 5.012079 3.122983 4.115593 0
M  V30 15 O 3.578365 2.191039 4.534109 0
M  V30 16 S -0.342665 -1.010880 0.983740 0
M  V30 17 C -2.072319 -0.923281 0.602583 0
M  V30 18 C -2.827434 -1.986475 0.095720 0
M  V30 19 C -4.152119 -2.094219 -0.256737 0
M  V30 20 C -4.847049 -3.171180 -0.751377 0
M  V30 21 N -4.095907 -4.272757 -0.904525 0
M  V30 22 C -2.794278 -4.323257 -0.605790 0
M  V30 23 C -2.105670 -5.615473 -0.827541 0
M  V30 24 C -3.101636 -6.650292 -1.327052 0
M  V30 25 C -1.554544 -6.098198 0.483338 0
M  V30 26 C -0.980979 -5.493828 -1.836654 0
M  V30 27 F -1.501393 -5.065248 -3.028696 0
M  V30 28 F -0.376267 -6.750206 -1.971682 0
M  V30 29 F 0.014472 -4.665317 -1.365798 0
M  V30 30 C -2.172333 -3.208193 -0.117080 0
M  V30 31 H -3.990252 1.011398 -0.235921 0
M  V30 32 H -3.729821 2.059451 1.186143 0
M  V30 33 H -4.422965 0.470532 1.468569 0
M  V30 34 H 1.488619 1.370461 2.955406 0
M  V30 35 H 4.604192 2.582795 -0.325138 0
M  V30 36 H 3.030351 3.057684 -1.026960 0
M  V30 37 H 3.040177 5.148937 -0.004014 0
M  V30 38 H 4.857913 4.927549 -0.121634 0
M  V30 39 H 3.296259 5.002177 2.356624 0
M  V30 40 H 5.055094 4.992334 2.126024 0
M  V30 41 H 5.089459 2.614622 1.602766 0
M  V30 42 H 5.994178 3.086966 4.522806 0
M  V30 43 H 5.523204 3.870900 4.673420 0
M  V30 44 H -4.725596 -1.194181 -0.122918 0
M  V30 45 H -5.898735 -3.092195 -0.981156 0
M  V30 46 H -2.764966 -7.632679 -0.971320 0
M  V30 47 H -4.122218 -6.379117 -1.035824 0
M  V30 48 H -3.026718 -6.642477 -2.439378 0
M  V30 49 H -1.535961 -7.219398 0.544468 0
M  V30 50 H -0.522618 -5.727931 0.611035 0
M  V30 51 H -2.162172 -5.669401 1.290293 0
M  V30 52 H -1.120948 -3.347897 0.097240 0
M  V30 END ATOM
M  V30 BEGIN BOND
M  V30 1 1 1 2
M  V30 2 1 2 3
M  V30 3 2 3 4
M  V30 4 1 4 5
M  V30 5 1 5 6
M  V30 6 2 6 7
M  V30 7 1 6 8
M  V30 8 1 8 9
M  V30 9 1 9 10
M  V30 10 1 10 11
M  V30 11 1 11 12
M  V30 12 1 12 13
M  V30 13 1 13 14
M  V30 14 2 13 15
M  V30 15 1 4 16
M  V30 16 1 16 17
M  V30 17 1 17 18
M  V30 18 2 18 19
M  V30 19 1 19 20
M  V30 20 2 20 21
M  V30 21 1 21 22
M  V30 22 1 22 23
M  V30 23 1 23 24
M  V30 24 1 23 25
M  V30 25 1 23 26
M  V30 26 1 26 27
M  V30 27 1 26 28
M  V30 28 1 26 29
M  V30 29 2 22 30
M  V30 30 2 17 2
M  V30 31 1 30 18
M  V30 32 1 12 8
M  V30 33 1 1 31
M  V30 34 1 1 32
M  V30 35 1 1 33
M  V30 36 1 5 34
M  V30 37 1 9 35
M  V30 38 1 9 36
M  V30 39 1 10 37
M  V30 40 1 10 38
M  V30 41 1 11 39
M  V30 42 1 11 40
M  V30 43 1 12 41 CFG=3
M  V30 44 1 14 42
M  V30 45 1 14 43
M  V30 46 1 19 44
M  V30 47 1 20 45
M  V30 48 1 24 46
M  V30 49 1 24 47
M  V30 50 1 24 48
M  V30 51 1 25 49
M  V30 52 1 25 50
M  V30 53 1 25 51
M  V30 54 1 30 52
M  V30 END BOND
M  V30 END CTAB
M  END
>  <Dataset>  (28) 
OralDrugs

>  <Ligand_Instance>  (28) 
nan

>  <PDB_ID>  (28) 
nan

>  <Standardized_SMILES>  (28) 
Cc1nc(NC(=O)N2CCC[C@H]2C(N)=O)sc1-c1ccnc(C(C)(C)C(F)(F)F)c1

>  <Name>  (28) 
Alpelisib

>  <Pocket>  (28) 
nan

>  <ATP_Site>  (28) 
nan

>  <Peripheral>  (28) 
nan

>  <Num_H_Atoms_ProtBoundConf>  (28) 
nan

>  <Num_Resolved_Atoms>  (28) 
nan

>  <Num_Not_Resolved_Atoms>  (28) 
nan

$$$$
CHEMBL661
     RDKit          3D

  0  0  0  0  0  0  0  0  0  0999 V3000
M  V30 BEGIN CTAB
M  V30 COUNTS 35 38 0 0 0
M  V30 BEGIN ATOM
M  V30 1 C 2.073708 -3.746901 2.365915 0
M  V30 2 C 1.962340 -2.354556 2.856174 0
M  V30 3 N 2.057588 -1.900834 4.121896 0
M  V30 4 N 1.852549 -0.601395 4.218659 0
M  V30 5 C 1.602423 -0.104105 2.984811 0
M  V30 6 N 1.686768 -1.225243 2.198480 0
M  V30 7 C 1.514911 -1.193225 0.763186 0
M  V30 8 C 2.384397 -2.096362 0.173802 0
M  V30 9 C 2.309207 -2.113298 -1.228189 0
M  V30 10 C 1.430428 -1.279735 -1.930555 0
M  V30 11 Cl 1.293503 -1.257166 -3.662082 0
M  V30 12 C 0.587447 -0.395096 -1.298742 0
M  V30 13 C 0.640152 -0.363169 0.098831 0
M  V30 14 C -0.297177 0.603782 0.664230 0
M  V30 15 C -1.581156 0.773024 0.023670 0
M  V30 16 C -2.311118 0.167111 -0.949933 0
M  V30 17 C -3.511843 0.597664 -1.440065 0
M  V30 18 C -4.099143 1.742946 -0.948113 0
M  V30 19 C -3.420457 2.408065 0.040295 0
M  V30 20 C -2.197967 1.920741 0.499266 0
M  V30 21 N 0.045776 1.305794 1.724879 0
M  V30 22 C 1.270899 1.306062 2.512782 0
M  V30 23 H 3.056023 -4.204221 2.420737 0
M  V30 24 H 1.439100 -4.000499 1.493064 0
M  V30 25 H 1.506383 -4.349910 3.160535 0
M  V30 26 H 3.100502 -2.708155 0.667138 0
M  V30 27 H 2.923880 -2.767506 -1.818960 0
M  V30 28 H -0.079286 0.311329 -1.759607 0
M  V30 29 H -1.831335 -0.751445 -1.255644 0
M  V30 30 H -3.921567 -0.030167 -2.213789 0
M  V30 31 H -5.041611 1.966117 -1.422846 0
M  V30 32 H -3.919497 3.297065 0.393979 0
M  V30 33 H -1.827377 2.583116 1.273933 0
M  V30 34 H 1.084098 1.919158 3.389080 0
M  V30 35 H 2.111615 1.669558 1.912473 0
M  V30 END ATOM
M  V30 BEGIN BOND
M  V30 1 1 1 2
M  V30 2 2 2 3
M  V30 3 1 3 4
M  V30 4 2 4 5
M  V30 5 1 5 6
M  V30 6 1 6 7
M  V30 7 2 7 8
M  V30 8 1 8 9
M  V30 9 2 9 10
M  V30 10 1 10 11
M  V30 11 1 10 12
M  V30 12 2 12 13
M  V30 13 1 13 14
M  V30 14 1 14 15
M  V30 15 2 15 16
M  V30 16 1 16 17
M  V30 17 2 17 18
M  V30 18 1 18 19
M  V30 19 2 19 20
M  V30 20 2 14 21
M  V30 21 1 21 22
M  V30 22 1 6 2
M  V30 23 1 13 7
M  V30 24 1 20 15
M  V30 25 1 22 5
M  V30 26 1 1 23
M  V30 27 1 1 24
M  V30 28 1 1 25
M  V30 29 1 8 26
M  V30 30 1 9 27
M  V30 31 1 12 28
M  V30 32 1 16 29
M  V30 33 1 17 30
M  V30 34 1 18 31
M  V30 35 1 19 32
M  V30 36 1 20 33
M  V30 37 1 22 34
M  V30 38 1 22 35
M  V30 END BOND
M  V30 END CTAB
M  END
>  <Dataset>  (29) 
OralDrugs

>  <Ligand_Instance>  (29) 
nan

>  <PDB_ID>  (29) 
nan

>  <Standardized_SMILES>  (29) 
Cc1nnc2n1-c1ccc(Cl)cc1C(c1ccccc1)=NC2

>  <Name>  (29) 
Alprazolam

>  <Pocket>  (29) 
nan

>  <ATP_Site>  (29) 
nan

>  <Peripheral>  (29) 
nan

>  <Num_H_Atoms_ProtBoundConf>  (29) 
nan

>  <Num_Resolved_Atoms>  (29) 
nan

>  <Num_Not_Resolved_Atoms>  (29) 
nan

$$$$
CHEMBL1455
     RDKit          3D

  0  0  0  0  0  0  0  0  0  0999 V3000
M  V30 BEGIN CTAB
M  V30 COUNTS 33 33 0 0 0
M  V30 BEGIN ATOM
M  V30 1 C 2.469706 1.681396 1.955596 0
M  V30 2 N 1.633102 0.569429 2.439690 0
M  V30 3 C 1.919597 0.042356 3.754337 0
M  V30 4 C 0.627623 0.145624 1.544219 0
M  V30 5 N 1.134080 -0.907098 0.829226 0
M  V30 6 C 0.393764 -1.543237 -0.133659 0
M  V30 7 N 0.947468 -2.685999 -0.826099 0
M  V30 8 C 1.616800 -3.551161 0.105632 0
M  V30 9 C 0.721164 -2.721071 -2.246854 0
M  V30 10 N -0.922116 -1.131298 -0.420512 0
M  V30 11 C -1.344624 -0.071581 0.342679 0
M  V30 12 N -2.681022 0.199715 -0.069645 0
M  V30 13 C -3.987933 -0.389704 0.097237 0
M  V30 14 C -2.603632 1.436777 -0.833230 0
M  V30 15 N -0.662454 0.557301 1.270307 0
M  V30 16 H 2.274224 1.923974 0.897700 0
M  V30 17 H 3.545721 1.446779 2.127208 0
M  V30 18 H 2.277320 2.606048 2.544219 0
M  V30 19 H 3.004671 0.107603 4.009671 0
M  V30 20 H 1.692055 -1.047073 3.840953 0
M  V30 21 H 1.281300 0.515234 4.533645 0
M  V30 22 H 2.712096 -3.479529 0.080011 0
M  V30 23 H 1.366417 -4.635257 -0.082312 0
M  V30 24 H 1.310570 -3.381738 1.177737 0
M  V30 25 H -0.124474 -3.391361 -2.441769 0
M  V30 26 H 0.532252 -1.693682 -2.645845 0
M  V30 27 H 1.621798 -3.171075 -2.724509 0
M  V30 28 H -4.003321 -1.227602 0.837866 0
M  V30 29 H -4.739312 0.323260 0.450969 0
M  V30 30 H -4.357896 -0.854692 -0.852094 0
M  V30 31 H -1.987575 1.288140 -1.740917 0
M  V30 32 H -3.606398 1.814934 -1.145374 0
M  V30 33 H -2.119992 2.242518 -0.240975 0
M  V30 END ATOM
M  V30 BEGIN BOND
M  V30 1 1 1 2
M  V30 2 1 2 3
M  V30 3 1 2 4
M  V30 4 2 4 5
M  V30 5 1 5 6
M  V30 6 1 6 7
M  V30 7 1 7 8
M  V30 8 1 7 9
M  V30 9 2 6 10
M  V30 10 1 10 11
M  V30 11 1 11 12
M  V30 12 1 12 13
M  V30 13 1 12 14
M  V30 14 2 11 15
M  V30 15 1 15 4
M  V30 16 1 1 16
M  V30 17 1 1 17
M  V30 18 1 1 18
M  V30 19 1 3 19
M  V30 20 1 3 20
M  V30 21 1 3 21
M  V30 22 1 8 22
M  V30 23 1 8 23
M  V30 24 1 8 24
M  V30 25 1 9 25
M  V30 26 1 9 26
M  V30 27 1 9 27
M  V30 28 1 13 28
M  V30 29 1 13 29
M  V30 30 1 13 30
M  V30 31 1 14 31
M  V30 32 1 14 32
M  V30 33 1 14 33
M  V30 END BOND
M  V30 END CTAB
M  END
>  <Dataset>  (30) 
OralDrugs

>  <Ligand_Instance>  (30) 
nan

>  <PDB_ID>  (30) 
nan

>  <Standardized_SMILES>  (30) 
CN(C)c1nc(N(C)C)nc(N(C)C)n1

>  <Name>  (30) 
Altretamine

>  <Pocket>  (30) 
nan

>  <ATP_Site>  (30) 
nan

>  <Peripheral>  (30) 
nan

>  <Num_H_Atoms_ProtBoundConf>  (30) 
nan

>  <Num_Resolved_Atoms>  (30) 
nan

>  <Num_Not_Resolved_Atoms>  (30) 
nan

$$$$
CHEMBL270190
     RDKit          3D

  0  0  0  0  0  0  0  0  0  0999 V3000
M  V30 BEGIN CTAB
M  V30 COUNTS 63 65 0 0 0
M  V30 BEGIN ATOM
M  V30 1 C -1.187014 -2.377525 -0.129698 0
M  V30 2 C 0.063822 -2.952350 0.444912 0 CFG=1
M  V30 3 C 0.916260 -1.830000 1.011812 0
M  V30 4 N -0.038573 -0.909787 1.578833 0
M  V30 5 C 0.499989 0.351095 1.938304 0
M  V30 6 C 0.945678 1.231332 0.796558 0 CFG=2
M  V30 7 C 1.475567 2.501563 1.485927 0
M  V30 8 C 1.955999 3.525841 0.563761 0
M  V30 9 C 3.269660 3.519880 0.099137 0
M  V30 10 C 3.672791 4.515645 -0.746329 0
M  V30 11 C 2.835115 5.540075 -1.169053 0
M  V30 12 C 1.521560 5.525078 -0.689800 0
M  V30 13 C 1.058200 4.529976 0.176568 0
M  V30 14 C -0.116699 1.637605 -0.117545 0
M  V30 15 O -1.360924 1.537700 0.002772 0
M  V30 16 N 0.290291 2.243814 -1.352351 0
M  V30 17 C -0.773955 2.661250 -2.274162 0
M  V30 18 C -1.596750 1.490673 -2.664930 0
M  V30 19 O -1.475134 0.284512 -2.306769 0
M  V30 20 O -2.536552 0.636460 -3.216012 0
M  V30 21 C -0.672934 -1.523379 2.717579 0
M  V30 22 C -0.362480 -2.966430 2.904152 0
M  V30 23 C -0.322935 -3.785283 1.660376 0 CFG=2
M  V30 24 C 0.724128 -4.880622 1.766220 0
M  V30 25 C -1.611735 -4.441427 1.340647 0
M  V30 26 C -2.845827 -4.429922 1.949007 0
M  V30 27 C -3.901539 -5.143832 1.444409 0
M  V30 28 C -3.804353 -5.920514 0.297895 0
M  V30 29 C -2.564567 -5.933784 -0.315780 0
M  V30 30 O -2.503303 -6.724491 -1.465245 0
M  V30 31 C -1.483455 -5.213793 0.185186 0
M  V30 32 H -1.205892 -1.252446 -0.054446 0
M  V30 33 H -1.326748 -2.589536 -1.204671 0
M  V30 34 H -2.114322 -2.692127 0.387928 0
M  V30 35 H 0.661959 -3.541384 -0.263484 0
M  V30 36 H 1.584784 -2.215644 1.817878 0
M  V30 37 H 1.575411 -1.372756 0.254911 0
M  V30 38 H -0.272400 0.905900 2.515293 0
M  V30 39 H 1.384217 0.263511 2.622217 0
M  V30 40 H 1.810242 0.746544 0.302418 0
M  V30 41 H 0.662442 2.949957 2.116570 0
M  V30 42 H 2.257870 2.220784 2.252066 0
M  V30 43 H 3.897377 2.713974 0.443122 0
M  V30 44 H 4.705006 4.449552 -1.068078 0
M  V30 45 H 3.189346 6.299945 -1.831376 0
M  V30 46 H 0.840239 6.306954 -0.997962 0
M  V30 47 H 0.039097 4.592530 0.497081 0
M  V30 48 H 1.283801 2.419796 -1.693744 0
M  V30 49 H -1.390972 3.491545 -1.842053 0
M  V30 50 H -0.351511 3.095827 -3.206867 0
M  V30 51 H -3.310884 1.000772 -3.793262 0
M  V30 52 H -1.766124 -1.369028 2.602341 0
M  V30 53 H -0.367740 -0.950639 3.614496 0
M  V30 54 H -1.071272 -3.411861 3.616102 0
M  V30 55 H 0.639292 -3.076849 3.408319 0
M  V30 56 H 0.363246 -5.859693 1.451475 0
M  V30 57 H 1.629657 -4.662196 1.128301 0
M  V30 58 H 1.069612 -4.918838 2.816496 0
M  V30 59 H -2.861122 -3.815380 2.823152 0
M  V30 60 H -4.806087 -5.038317 2.026631 0
M  V30 61 H -4.698750 -6.418340 0.021887 0
M  V30 62 H -3.165617 -6.556501 -2.235183 0
M  V30 63 H -0.609951 -5.347986 -0.423645 0
M  V30 END ATOM
M  V30 BEGIN BOND
M  V30 1 1 1 2
M  V30 2 1 2 3
M  V30 3 1 3 4
M  V30 4 1 4 5
M  V30 5 1 5 6
M  V30 6 1 6 7
M  V30 7 1 7 8
M  V30 8 2 8 9
M  V30 9 1 9 10
M  V30 10 2 10 11
M  V30 11 1 11 12
M  V30 12 2 12 13
M  V30 13 1 6 14
M  V30 14 2 14 15
M  V30 15 1 14 16
M  V30 16 1 16 17
M  V30 17 1 17 18
M  V30 18 2 18 19
M  V30 19 1 18 20
M  V30 20 1 4 21
M  V30 21 1 21 22
M  V30 22 1 22 23
M  V30 23 1 23 24 CFG=1
M  V30 24 1 23 25
M  V30 25 2 25 26
M  V30 26 1 26 27
M  V30 27 2 27 28
M  V30 28 1 28 29
M  V30 29 1 29 30
M  V30 30 2 29 31
M  V30 31 1 23 2
M  V30 32 1 31 25
M  V30 33 1 13 8
M  V30 34 1 1 32
M  V30 35 1 1 33
M  V30 36 1 1 34
M  V30 37 1 2 35 CFG=3
M  V30 38 1 3 36
M  V30 39 1 3 37
M  V30 40 1 5 38
M  V30 41 1 5 39
M  V30 42 1 6 40 CFG=3
M  V30 43 1 7 41
M  V30 44 1 7 42
M  V30 45 1 9 43
M  V30 46 1 10 44
M  V30 47 1 11 45
M  V30 48 1 12 46
M  V30 49 1 13 47
M  V30 50 1 16 48
M  V30 51 1 17 49
M  V30 52 1 17 50
M  V30 53 1 20 51
M  V30 54 1 21 52
M  V30 55 1 21 53
M  V30 56 1 22 54
M  V30 57 1 22 55
M  V30 58 1 24 56
M  V30 59 1 24 57
M  V30 60 1 24 58
M  V30 61 1 26 59
M  V30 62 1 27 60
M  V30 63 1 28 61
M  V30 64 1 30 62
M  V30 65 1 31 63
M  V30 END BOND
M  V30 END CTAB
M  END
>  <Dataset>  (31) 
OralDrugs

>  <Ligand_Instance>  (31) 
nan

>  <PDB_ID>  (31) 
nan

>  <Standardized_SMILES>  (31) 
C[C@H]1CN(C[C@H](Cc2ccccc2)C(=O)NCC(=O)O)CC[C@@]1(C)c1cccc(O)c1

>  <Name>  (31) 
Alvimopan

>  <Pocket>  (31) 
nan

>  <ATP_Site>  (31) 
nan

>  <Peripheral>  (31) 
nan

>  <Num_H_Atoms_ProtBoundConf>  (31) 
nan

>  <Num_Resolved_Atoms>  (31) 
nan

>  <Num_Not_Resolved_Atoms>  (31) 
nan

$$$$
CHEMBL660
     RDKit          3D

  0  0  0  0  0  0  0  0  0  0999 V3000
M  V30 BEGIN CTAB
M  V30 COUNTS 28 30 0 0 0
M  V30 BEGIN ATOM
M  V30 1 N -1.238912 -1.385170 2.872657 0
M  V30 2 C -0.440008 -0.966419 1.751153 0
M  V30 3 C 0.603746 0.031722 2.198089 0
M  V30 4 C 1.431215 0.469962 1.021752 0
M  V30 5 C 2.132191 -0.771444 0.480465 0
M  V30 6 C 1.106711 -1.770143 0.014846 0
M  V30 7 C 0.290422 -1.151603 -1.082659 0
M  V30 8 C -0.450421 0.047514 -0.503044 0
M  V30 9 C 0.618653 1.031453 -0.108194 0
M  V30 10 C -1.295316 -0.416104 0.641571 0
M  V30 11 C 0.292676 -2.172313 1.213252 0
M  V30 12 H -1.072313 -0.789129 3.723418 0
M  V30 13 H -2.253615 -1.330805 2.680874 0
M  V30 14 H 1.302643 -0.505944 2.887584 0
M  V30 15 H 0.164387 0.880685 2.765158 0
M  V30 16 H 2.172311 1.210401 1.356408 0
M  V30 17 H 2.804592 -1.207054 1.262419 0
M  V30 18 H 2.714015 -0.451444 -0.401632 0
M  V30 19 H 1.612691 -2.662837 -0.378775 0
M  V30 20 H -0.451220 -1.827718 -1.521808 0
M  V30 21 H 0.992101 -0.747776 -1.836379 0
M  V30 22 H -1.098138 0.499923 -1.271733 0
M  V30 23 H 1.308196 1.099926 -0.988075 0
M  V30 24 H 0.242339 2.052420 0.067793 0
M  V30 25 H -1.902623 -1.275442 0.259312 0
M  V30 26 H -2.020860 0.337899 0.980706 0
M  V30 27 H -0.387749 -3.018586 1.010978 0
M  V30 28 H 1.027890 -2.464964 2.006472 0
M  V30 END ATOM
M  V30 BEGIN BOND
M  V30 1 1 1 2
M  V30 2 1 2 3
M  V30 3 1 3 4
M  V30 4 1 4 5
M  V30 5 1 5 6
M  V30 6 1 6 7
M  V30 7 1 7 8
M  V30 8 1 8 9
M  V30 9 1 8 10
M  V30 10 1 6 11
M  V30 11 1 10 2
M  V30 12 1 11 2
M  V30 13 1 9 4
M  V30 14 1 1 12
M  V30 15 1 1 13
M  V30 16 1 3 14
M  V30 17 1 3 15
M  V30 18 1 4 16
M  V30 19 1 5 17
M  V30 20 1 5 18
M  V30 21 1 6 19
M  V30 22 1 7 20
M  V30 23 1 7 21
M  V30 24 1 8 22
M  V30 25 1 9 23
M  V30 26 1 9 24
M  V30 27 1 10 25
M  V30 28 1 10 26
M  V30 29 1 11 27
M  V30 30 1 11 28
M  V30 END BOND
M  V30 END CTAB
M  END
>  <Dataset>  (32) 
OralDrugs

>  <Ligand_Instance>  (32) 
nan

>  <PDB_ID>  (32) 
nan

>  <Standardized_SMILES>  (32) 
NC12CC3CC(CC(C3)C1)C2

>  <Name>  (32) 
Amantadine

>  <Pocket>  (32) 
nan

>  <ATP_Site>  (32) 
nan

>  <Peripheral>  (32) 
nan

>  <Num_H_Atoms_ProtBoundConf>  (32) 
nan

>  <Num_Resolved_Atoms>  (32) 
nan

>  <Num_Not_Resolved_Atoms>  (32) 
nan

$$$$
CHEMBL1652
     RDKit          3D

  0  0  0  0  0  0  0  0  0  0999 V3000
M  V30 BEGIN CTAB
M  V30 COUNTS 78 79 0 0 0
M  V30 BEGIN ATOM
M  V30 1 C 4.235837 -1.316625 4.661243 0
M  V30 2 C 5.067697 -0.712279 3.605263 0
M  V30 3 N 4.282086 -0.183054 2.444003 0 CHG=1 VAL=4
M  V30 4 C 3.380936 0.839989 2.962138 0
M  V30 5 C 4.017323 1.738599 3.990122 0
M  V30 6 C 3.509385 -1.300888 2.077569 0
M  V30 7 C 2.495685 -1.269560 1.022562 0
M  V30 8 N 1.389106 -0.373885 1.161857 0
M  V30 9 C 0.502682 -0.523128 0.026821 0
M  V30 10 O 0.853285 -1.377465 -0.836983 0
M  V30 11 C -0.728328 0.234863 -0.161508 0
M  V30 12 O -1.108777 1.096399 0.676236 0
M  V30 13 N -1.508469 -0.011972 -1.318880 0
M  V30 14 C -2.733645 0.609152 -1.694390 0
M  V30 15 C -3.915598 0.497670 -0.853110 0
M  V30 16 N -4.503531 -0.760337 -0.510472 0 CHG=1 VAL=4
M  V30 17 C -3.668545 -1.486959 0.422862 0
M  V30 18 C -4.426491 -2.263134 1.466631 0
M  V30 19 C -5.623513 -0.330263 0.402626 0
M  V30 20 C -6.342595 0.871248 -0.116965 0
M  V30 21 C -5.182009 -1.487884 -1.500699 0
M  V30 22 C -4.529492 -2.302154 -2.490136 0
M  V30 23 C -4.292925 -1.732257 -3.756222 0
M  V30 24 C -3.674832 -2.286660 -4.856942 0
M  V30 25 C -3.221868 -3.579406 -4.706825 0
M  V30 26 C -3.396253 -4.245380 -3.511976 0
M  V30 27 C -4.029256 -3.583535 -2.488469 0
M  V30 28 Cl -4.268683 -4.540463 -1.045758 0
M  V30 29 C 5.282205 0.340102 1.602158 0
M  V30 30 C 5.163996 0.386043 0.161738 0
M  V30 31 C 4.669316 1.575233 -0.409435 0
M  V30 32 C 4.460143 1.806393 -1.753318 0
M  V30 33 C 4.757693 0.791227 -2.630661 0
M  V30 34 C 5.247008 -0.407058 -2.164224 0
M  V30 35 C 5.428211 -0.560796 -0.813083 0
M  V30 36 Cl 6.079272 -2.074713 -0.245736 0
M  V30 37 H 3.270106 -0.874834 4.886647 0
M  V30 38 H 4.057203 -2.422395 4.500115 0
M  V30 39 H 4.855556 -1.315576 5.613062 0
M  V30 40 H 5.631715 -1.563908 3.117342 0
M  V30 41 H 5.854525 -0.019108 3.905055 0
M  V30 42 H 2.995661 1.469345 2.173672 0
M  V30 43 H 2.546361 0.347520 3.478379 0
M  V30 44 H 3.586560 2.780897 3.909144 0
M  V30 45 H 5.090323 1.870735 3.902190 0
M  V30 46 H 3.788138 1.459398 5.040530 0
M  V30 47 H 2.928017 -1.581947 3.035737 0
M  V30 48 H 4.128048 -2.233750 1.921056 0
M  V30 49 H 2.865513 -1.232244 -0.009437 0
M  V30 50 H 2.011469 -2.307733 1.068608 0
M  V30 51 H 0.945664 0.371610 1.779652 0
M  V30 52 H -1.154786 -0.749460 -2.006450 0
M  V30 53 H -2.478964 1.744062 -1.661911 0
M  V30 54 H -2.926393 0.524200 -2.795607 0
M  V30 55 H -3.687742 1.002168 0.133003 0
M  V30 56 H -4.738699 1.073308 -1.376608 0
M  V30 57 H -3.162774 -0.674095 1.020282 0
M  V30 58 H -2.971217 -2.131413 -0.078618 0
M  V30 59 H -5.337364 -2.758709 1.109858 0
M  V30 60 H -3.754363 -3.117246 1.780702 0
M  V30 61 H -4.575736 -1.702240 2.413624 0
M  V30 62 H -5.228639 -0.070677 1.393463 0
M  V30 63 H -6.378550 -1.140807 0.461745 0
M  V30 64 H -6.717656 0.802555 -1.146126 0
M  V30 65 H -5.853427 1.839473 0.124715 0
M  V30 66 H -7.292471 0.917046 0.507279 0
M  V30 67 H -5.947502 -2.141018 -0.937927 0
M  V30 68 H -5.895812 -0.791512 -2.052771 0
M  V30 69 H -4.636826 -0.696449 -3.934095 0
M  V30 70 H -3.548118 -1.763061 -5.770764 0
M  V30 71 H -2.734667 -4.050586 -5.534095 0
M  V30 72 H -3.033544 -5.246787 -3.425124 0
M  V30 73 H 5.513224 1.411098 1.932176 0
M  V30 74 H 6.275652 -0.163440 1.897673 0
M  V30 75 H 4.421159 2.402260 0.242435 0
M  V30 76 H 4.076279 2.752610 -2.097042 0
M  V30 77 H 4.594684 0.969984 -3.682173 0
M  V30 78 H 5.487191 -1.216801 -2.835514 0
M  V30 END ATOM
M  V30 BEGIN BOND
M  V30 1 1 1 2
M  V30 2 1 2 3
M  V30 3 1 3 4
M  V30 4 1 4 5
M  V30 5 1 3 6
M  V30 6 1 6 7
M  V30 7 1 7 8
M  V30 8 1 8 9
M  V30 9 2 9 10
M  V30 10 1 9 11
M  V30 11 2 11 12
M  V30 12 1 11 13
M  V30 13 1 13 14
M  V30 14 1 14 15
M  V30 15 1 15 16
M  V30 16 1 16 17
M  V30 17 1 17 18
M  V30 18 1 16 19
M  V30 19 1 19 20
M  V30 20 1 16 21
M  V30 21 1 21 22
M  V30 22 2 22 23
M  V30 23 1 23 24
M  V30 24 2 24 25
M  V30 25 1 25 26
M  V30 26 2 26 27
M  V30 27 1 27 28
M  V30 28 1 3 29
M  V30 29 1 29 30
M  V30 30 2 30 31
M  V30 31 1 31 32
M  V30 32 2 32 33
M  V30 33 1 33 34
M  V30 34 2 34 35
M  V30 35 1 35 36
M  V30 36 1 27 22
M  V30 37 1 35 30
M  V30 38 1 1 37
M  V30 39 1 1 38
M  V30 40 1 1 39
M  V30 41 1 2 40
M  V30 42 1 2 41
M  V30 43 1 4 42
M  V30 44 1 4 43
M  V30 45 1 5 44
M  V30 46 1 5 45
M  V30 47 1 5 46
M  V30 48 1 6 47
M  V30 49 1 6 48
M  V30 50 1 7 49
M  V30 51 1 7 50
M  V30 52 1 8 51
M  V30 53 1 13 52
M  V30 54 1 14 53
M  V30 55 1 14 54
M  V30 56 1 15 55
M  V30 57 1 15 56
M  V30 58 1 17 57
M  V30 59 1 17 58
M  V30 60 1 18 59
M  V30 61 1 18 60
M  V30 62 1 18 61
M  V30 63 1 19 62
M  V30 64 1 19 63
M  V30 65 1 20 64
M  V30 66 1 20 65
M  V30 67 1 20 66
M  V30 68 1 21 67
M  V30 69 1 21 68
M  V30 70 1 23 69
M  V30 71 1 24 70
M  V30 72 1 25 71
M  V30 73 1 26 72
M  V30 74 1 29 73
M  V30 75 1 29 74
M  V30 76 1 31 75
M  V30 77 1 32 76
M  V30 78 1 33 77
M  V30 79 1 34 78
M  V30 END BOND
M  V30 END CTAB
M  END
>  <Dataset>  (33) 
OralDrugs

>  <Ligand_Instance>  (33) 
nan

>  <PDB_ID>  (33) 
nan

>  <Standardized_SMILES>  (33) 
CC[N+](CC)(CCNC(=O)C(=O)NCC[N+](CC)(CC)Cc1ccccc1Cl)Cc1ccccc1Cl

>  <Name>  (33) 
Ambenonium

>  <Pocket>  (33) 
nan

>  <ATP_Site>  (33) 
nan

>  <Peripheral>  (33) 
nan

>  <Num_H_Atoms_ProtBoundConf>  (33) 
nan

>  <Num_Resolved_Atoms>  (33) 
nan

>  <Num_Not_Resolved_Atoms>  (33) 
nan

$$$$
CHEMBL1111
     RDKit          3D

  0  0  0  0  0  0  0  0  0  0999 V3000
M  V30 BEGIN CTAB
M  V30 COUNTS 50 52 0 0 0
M  V30 BEGIN ATOM
M  V30 1 C 0.990381 -2.447551 2.634854 0
M  V30 2 O 0.394930 -1.692628 1.672818 0
M  V30 3 C 1.060540 -0.602025 1.195369 0
M  V30 4 C 2.335419 -0.956714 0.604299 0
M  V30 5 C 3.325352 -1.241644 1.553306 0
M  V30 6 C 4.612348 -1.602225 1.150171 0
M  V30 7 C 4.957257 -1.691295 -0.193753 0
M  V30 8 C 4.003946 -1.416103 -1.148245 0
M  V30 9 C 2.751075 -1.065558 -0.701586 0
M  V30 10 C 1.186639 0.484540 2.229152 0
M  V30 11 C 0.031075 0.553039 3.016492 0
M  V30 12 C -0.112994 1.466410 4.043699 0
M  V30 13 C 0.953435 2.340571 4.279952 0
M  V30 14 C 2.076599 2.259003 3.499643 0
M  V30 15 C 2.231050 1.352303 2.472616 0
M  V30 16 C 0.115149 0.008163 0.147977 0 CFG=2
M  V30 17 O -0.201337 -0.917872 -0.871988 0
M  V30 18 C -1.555084 -1.234861 -1.098306 0
M  V30 19 N -2.512889 -0.640952 -0.330958 0
M  V30 20 C -3.813437 -0.871171 -0.464019 0
M  V30 21 C -4.667255 -0.097936 0.495292 0
M  V30 22 C -4.252924 -1.760534 -1.428720 0
M  V30 23 C -3.294438 -2.365259 -2.208427 0
M  V30 24 C -3.763405 -3.319034 -3.244977 0
M  V30 25 N -1.985741 -2.102712 -2.039825 0
M  V30 26 C 0.697357 1.262854 -0.432086 0
M  V30 27 O 1.090702 2.302997 0.161698 0
M  V30 28 O 1.050221 1.856289 -1.636433 0
M  V30 29 H 1.244807 -1.931198 3.582115 0
M  V30 30 H 1.845422 -3.060125 2.336346 0
M  V30 31 H 0.201747 -3.201653 2.961342 0
M  V30 32 H 3.316630 -1.237246 2.637412 0
M  V30 33 H 5.461091 -1.846249 1.779777 0
M  V30 34 H 5.930444 -1.964887 -0.571265 0
M  V30 35 H 4.186725 -1.460641 -2.207538 0
M  V30 36 H 1.997072 -0.842935 -1.438755 0
M  V30 37 H -0.856016 -0.090747 2.904897 0
M  V30 38 H -0.994750 1.535138 4.660781 0
M  V30 39 H 0.893883 3.074238 5.071463 0
M  V30 40 H 2.943330 2.919028 3.640157 0
M  V30 41 H 3.045833 1.196031 1.807165 0
M  V30 42 H -0.826031 0.338758 0.634200 0
M  V30 43 H -4.293067 -0.387238 1.517251 0
M  V30 44 H -4.520616 0.996656 0.411831 0
M  V30 45 H -5.721262 -0.381543 0.408942 0
M  V30 46 H -5.324447 -1.898231 -1.479003 0
M  V30 47 H -4.066169 -4.287057 -2.829980 0
M  V30 48 H -4.624375 -2.862354 -3.814405 0
M  V30 49 H -2.983687 -3.482498 -4.022229 0
M  V30 50 H 0.340988 2.373221 -2.179256 0
M  V30 END ATOM
M  V30 BEGIN BOND
M  V30 1 1 1 2
M  V30 2 1 2 3
M  V30 3 1 3 4
M  V30 4 2 4 5
M  V30 5 1 5 6
M  V30 6 2 6 7
M  V30 7 1 7 8
M  V30 8 2 8 9
M  V30 9 1 3 10
M  V30 10 2 10 11
M  V30 11 1 11 12
M  V30 12 2 12 13
M  V30 13 1 13 14
M  V30 14 2 14 15
M  V30 15 1 3 16
M  V30 16 1 16 17
M  V30 17 1 17 18
M  V30 18 2 18 19
M  V30 19 1 19 20
M  V30 20 1 20 21
M  V30 21 2 20 22
M  V30 22 1 22 23
M  V30 23 1 23 24
M  V30 24 2 23 25
M  V30 25 1 16 26
M  V30 26 2 26 27
M  V30 27 1 26 28
M  V30 28 1 9 4
M  V30 29 1 15 10
M  V30 30 1 25 18
M  V30 31 1 1 29
M  V30 32 1 1 30
M  V30 33 1 1 31
M  V30 34 1 5 32
M  V30 35 1 6 33
M  V30 36 1 7 34
M  V30 37 1 8 35
M  V30 38 1 9 36
M  V30 39 1 11 37
M  V30 40 1 12 38
M  V30 41 1 13 39
M  V30 42 1 14 40
M  V30 43 1 15 41
M  V30 44 1 16 42 CFG=1
M  V30 45 1 21 43
M  V30 46 1 21 44
M  V30 47 1 21 45
M  V30 48 1 22 46
M  V30 49 1 24 47
M  V30 50 1 24 48
M  V30 51 1 24 49
M  V30 52 1 28 50
M  V30 END BOND
M  V30 END CTAB
M  END
>  <Dataset>  (34) 
OralDrugs

>  <Ligand_Instance>  (34) 
nan

>  <PDB_ID>  (34) 
nan

>  <Standardized_SMILES>  (34) 
COC(c1ccccc1)(c1ccccc1)[C@H](Oc1nc(C)cc(C)n1)C(=O)O

>  <Name>  (34) 
Ambrisentan

>  <Pocket>  (34) 
nan

>  <ATP_Site>  (34) 
nan

>  <Peripheral>  (34) 
nan

>  <Num_H_Atoms_ProtBoundConf>  (34) 
nan

>  <Num_Resolved_Atoms>  (34) 
nan

>  <Num_Not_Resolved_Atoms>  (34) 
nan

$$$$
CHEMBL354077
     RDKit          3D

  0  0  0  0  0  0  0  0  0  0999 V3000
M  V30 BEGIN CTAB
M  V30 COUNTS 15 15 0 0 0
M  V30 BEGIN ATOM
M  V30 1 N -0.269879 -0.939630 2.155569 0
M  V30 2 C 0.623251 -0.389031 1.206611 0
M  V30 3 C 0.729081 -0.901181 -0.073180 0
M  V30 4 C 1.579962 -0.413526 -1.051874 0
M  V30 5 N 2.360477 0.634627 -0.734902 0
M  V30 6 C 2.294600 1.176679 0.513101 0
M  V30 7 C 1.449369 0.693447 1.487689 0
M  V30 8 N 1.409471 1.288232 2.782361 0
M  V30 9 H -1.048073 -0.326980 2.407813 0
M  V30 10 H -0.084488 -1.892377 2.519843 0
M  V30 11 H 0.081471 -1.745423 -0.284767 0
M  V30 12 H 1.560981 -0.908915 -2.009601 0
M  V30 13 H 2.927287 2.015675 0.748555 0
M  V30 14 H 2.226516 1.669699 3.316164 0
M  V30 15 H 0.450734 1.337543 3.225938 0
M  V30 END ATOM
M  V30 BEGIN BOND
M  V30 1 1 1 2
M  V30 2 2 2 3
M  V30 3 1 3 4
M  V30 4 2 4 5
M  V30 5 1 5 6
M  V30 6 2 6 7
M  V30 7 1 7 8
M  V30 8 1 7 2
M  V30 9 1 1 9
M  V30 10 1 1 10
M  V30 11 1 3 11
M  V30 12 1 4 12
M  V30 13 1 6 13
M  V30 14 1 8 14
M  V30 15 1 8 15
M  V30 END BOND
M  V30 END CTAB
M  END
>  <Dataset>  (35) 
OralDrugs

>  <Ligand_Instance>  (35) 
nan

>  <PDB_ID>  (35) 
nan

>  <Standardized_SMILES>  (35) 
Nc1ccncc1N

>  <Name>  (35) 
Amifampridine

>  <Pocket>  (35) 
nan

>  <ATP_Site>  (35) 
nan

>  <Peripheral>  (35) 
nan

>  <Num_H_Atoms_ProtBoundConf>  (35) 
nan

>  <Num_Resolved_Atoms>  (35) 
nan

>  <Num_Not_Resolved_Atoms>  (35) 
nan

$$$$
CHEMBL945
     RDKit          3D

  0  0  0  0  0  0  0  0  0  0999 V3000
M  V30 BEGIN CTAB
M  V30 COUNTS 23 23 0 0 0
M  V30 BEGIN ATOM
M  V30 1 N 1.612701 -2.614950 3.424323 0
M  V30 2 C 1.211874 -2.742438 2.234735 0
M  V30 3 N 1.304206 -4.171736 2.047767 0
M  V30 4 N 0.759110 -1.909415 1.199813 0
M  V30 5 C 0.740882 -0.543890 1.579126 0
M  V30 6 O 1.091220 -0.137257 2.712135 0
M  V30 7 C 0.297624 0.461132 0.625846 0
M  V30 8 N -0.099045 0.105501 -0.623896 0
M  V30 9 C -0.512746 1.049551 -1.511697 0
M  V30 10 Cl -1.001739 0.485286 -3.092078 0
M  V30 11 C -0.522855 2.366947 -1.124305 0
M  V30 12 N -0.971675 3.253486 -2.130944 0
M  V30 13 N -0.131243 2.754860 0.121139 0
M  V30 14 C 0.281303 1.795524 1.000794 0
M  V30 15 N 0.685843 2.235577 2.299779 0
M  V30 16 H 1.743546 -1.836279 4.045586 0
M  V30 17 H 0.480839 -4.724549 2.412584 0
M  V30 18 H 1.914629 -4.918866 1.663987 0
M  V30 19 H 0.476014 -2.279268 0.271220 0
M  V30 20 H -0.501781 4.162668 -2.323311 0
M  V30 21 H -1.810162 3.017550 -2.728086 0
M  V30 22 H 1.530792 2.772375 2.553221 0
M  V30 23 H -0.064690 1.895031 2.951375 0
M  V30 END ATOM
M  V30 BEGIN BOND
M  V30 1 2 1 2 CFG=2
M  V30 2 1 2 3
M  V30 3 1 2 4
M  V30 4 1 4 5
M  V30 5 2 5 6
M  V30 6 1 5 7
M  V30 7 2 7 8
M  V30 8 1 8 9
M  V30 9 1 9 10
M  V30 10 2 9 11
M  V30 11 1 11 12
M  V30 12 1 11 13
M  V30 13 2 13 14
M  V30 14 1 14 15
M  V30 15 1 14 7
M  V30 16 1 1 16
M  V30 17 1 3 17
M  V30 18 1 3 18
M  V30 19 1 4 19
M  V30 20 1 12 20
M  V30 21 1 12 21
M  V30 22 1 15 22
M  V30 23 1 15 23
M  V30 END BOND
M  V30 END CTAB
M  END
>  <Dataset>  (36) 
OralDrugs

>  <Ligand_Instance>  (36) 
nan

>  <PDB_ID>  (36) 
nan

>  <Standardized_SMILES>  (36) 
N=C(N)NC(=O)c1nc(Cl)c(N)nc1N

>  <Name>  (36) 
Amiloride

>  <Pocket>  (36) 
nan

>  <ATP_Site>  (36) 
nan

>  <Peripheral>  (36) 
nan

>  <Num_H_Atoms_ProtBoundConf>  (36) 
nan

>  <Num_Resolved_Atoms>  (36) 
nan

>  <Num_Not_Resolved_Atoms>  (36) 
nan

$$$$
CHEMBL1046
     RDKit          3D

  0  0  0  0  0  0  0  0  0  0999 V3000
M  V30 BEGIN CTAB
M  V30 COUNTS 22 21 0 0 0
M  V30 BEGIN ATOM
M  V30 1 N 1.155444 1.214928 -1.088812 0
M  V30 2 C 1.576680 1.908898 0.106778 0
M  V30 3 C 1.990739 0.949286 1.154094 0
M  V30 4 C 0.983251 -0.012992 1.647846 0
M  V30 5 C 0.383180 -0.958794 0.678203 0
M  V30 6 C -0.607818 -1.857929 1.423462 0
M  V30 7 C -1.697095 -1.101537 2.063611 0
M  V30 8 O -1.504877 -0.605877 3.209781 0
M  V30 9 O -2.916111 -0.506013 2.279966 0
M  V30 10 H 1.756913 0.399548 -1.313361 0
M  V30 11 H 1.075433 1.826866 -1.928729 0
M  V30 12 H 2.467350 2.525459 -0.205887 0
M  V30 13 H 0.754928 2.595731 0.423870 0
M  V30 14 H 2.951787 0.462297 0.831487 0
M  V30 15 H 2.310987 1.568732 2.047162 0
M  V30 16 H 0.179395 0.580733 2.145113 0
M  V30 17 H 1.476222 -0.649387 2.442531 0
M  V30 18 H 1.110398 -1.623903 0.203030 0
M  V30 19 H -0.162396 -0.439919 -0.140685 0
M  V30 20 H -0.107697 -2.475445 2.175896 0
M  V30 21 H -1.080052 -2.565380 0.700792 0
M  V30 22 H -3.210137 0.257116 1.660109 0
M  V30 END ATOM
M  V30 BEGIN BOND
M  V30 1 1 1 2
M  V30 2 1 2 3
M  V30 3 1 3 4
M  V30 4 1 4 5
M  V30 5 1 5 6
M  V30 6 1 6 7
M  V30 7 2 7 8
M  V30 8 1 7 9
M  V30 9 1 1 10
M  V30 10 1 1 11
M  V30 11 1 2 12
M  V30 12 1 2 13
M  V30 13 1 3 14
M  V30 14 1 3 15
M  V30 15 1 4 16
M  V30 16 1 4 17
M  V30 17 1 5 18
M  V30 18 1 5 19
M  V30 19 1 6 20
M  V30 20 1 6 21
M  V30 21 1 9 22
M  V30 END BOND
M  V30 END CTAB
M  END
>  <Dataset>  (37) 
OralDrugs

>  <Ligand_Instance>  (37) 
nan

>  <PDB_ID>  (37) 
nan

>  <Standardized_SMILES>  (37) 
NCCCCCC(=O)O

>  <Name>  (37) 
Aminocaproic Acid

>  <Pocket>  (37) 
nan

>  <ATP_Site>  (37) 
nan

>  <Peripheral>  (37) 
nan

>  <Num_H_Atoms_ProtBoundConf>  (37) 
nan

>  <Num_Resolved_Atoms>  (37) 
nan

>  <Num_Not_Resolved_Atoms>  (37) 
nan

$$$$
CHEMBL488
     RDKit          3D

  0  0  0  0  0  0  0  0  0  0999 V3000
M  V30 BEGIN CTAB
M  V30 COUNTS 33 34 0 0 0
M  V30 BEGIN ATOM
M  V30 1 C -2.502075 -1.306961 1.473312 0
M  V30 2 C -1.545876 -0.339298 2.130240 0
M  V30 3 C -0.571776 0.223927 1.090072 0
M  V30 4 C 0.172717 -0.910406 0.512958 0
M  V30 5 C 1.064589 -1.434323 1.456212 0
M  V30 6 C 1.889437 -2.522005 1.147395 0
M  V30 7 C 1.822729 -3.090272 -0.112800 0
M  V30 8 N 2.610531 -4.196781 -0.540275 0
M  V30 9 C 0.934461 -2.558753 -1.033203 0
M  V30 10 C 0.118475 -1.488289 -0.738542 0
M  V30 11 C -1.423013 0.937341 0.078954 0
M  V30 12 C -0.681734 1.801245 -0.868489 0
M  V30 13 C 0.558827 2.386159 -0.307153 0
M  V30 14 O 1.174539 3.202209 -1.068156 0
M  V30 15 N 1.037494 2.065397 0.989979 0
M  V30 16 C 0.356118 1.097591 1.807123 0
M  V30 17 O 0.614754 1.085679 3.059036 0
M  V30 18 H -2.073421 -1.774917 0.549824 0
M  V30 19 H -2.733152 -2.161726 2.143112 0
M  V30 20 H -3.474170 -0.822269 1.184979 0
M  V30 21 H -2.096876 0.552376 2.549383 0
M  V30 22 H -1.040747 -0.826686 2.961926 0
M  V30 23 H 1.225710 -1.094320 2.477875 0
M  V30 24 H 2.587249 -2.961257 1.827968 0
M  V30 25 H 2.703793 -4.988182 0.156449 0
M  V30 26 H 3.052888 -4.191150 -1.489785 0
M  V30 27 H 0.826418 -2.954771 -2.047326 0
M  V30 28 H -0.594027 -1.007466 -1.370401 0
M  V30 29 H -2.218584 1.544523 0.597946 0
M  V30 30 H -1.997120 0.177488 -0.490662 0
M  V30 31 H -1.339320 2.664354 -1.148554 0
M  V30 32 H -0.415918 1.338267 -1.842087 0
M  V30 33 H 1.898062 2.571205 1.297798 0
M  V30 END ATOM
M  V30 BEGIN BOND
M  V30 1 1 1 2
M  V30 2 1 2 3
M  V30 3 1 3 4
M  V30 4 2 4 5
M  V30 5 1 5 6
M  V30 6 2 6 7
M  V30 7 1 7 8
M  V30 8 1 7 9
M  V30 9 2 9 10
M  V30 10 1 3 11
M  V30 11 1 11 12
M  V30 12 1 12 13
M  V30 13 2 13 14
M  V30 14 1 13 15
M  V30 15 1 15 16
M  V30 16 2 16 17
M  V30 17 1 16 3
M  V30 18 1 10 4
M  V30 19 1 1 18
M  V30 20 1 1 19
M  V30 21 1 1 20
M  V30 22 1 2 21
M  V30 23 1 2 22
M  V30 24 1 5 23
M  V30 25 1 6 24
M  V30 26 1 8 25
M  V30 27 1 8 26
M  V30 28 1 9 27
M  V30 29 1 10 28
M  V30 30 1 11 29
M  V30 31 1 11 30
M  V30 32 1 12 31
M  V30 33 1 12 32
M  V30 34 1 15 33
M  V30 END BOND
M  V30 END CTAB
M  END
>  <Dataset>  (38) 
OralDrugs

>  <Ligand_Instance>  (38) 
nan

>  <PDB_ID>  (38) 
nan

>  <Standardized_SMILES>  (38) 
CCC1(c2ccc(N)cc2)CCC(=O)NC1=O

>  <Name>  (38) 
Aminoglutethimide

>  <Pocket>  (38) 
nan

>  <ATP_Site>  (38) 
nan

>  <Peripheral>  (38) 
nan

>  <Num_H_Atoms_ProtBoundConf>  (38) 
nan

>  <Num_Resolved_Atoms>  (38) 
nan

>  <Num_Not_Resolved_Atoms>  (38) 
nan

$$$$
CHEMBL1370561
     RDKit          3D

  0  0  0  0  0  0  0  0  0  0999 V3000
M  V30 BEGIN CTAB
M  V30 COUNTS 21 22 0 0 0
M  V30 BEGIN ATOM
M  V30 1 C 1.755878 2.441490 2.071568 0
M  V30 2 N 1.196700 1.244860 1.457830 0
M  V30 3 C 1.511389 0.030460 1.973047 0
M  V30 4 O 2.272425 -0.069554 2.963886 0
M  V30 5 C 0.961878 -1.083686 1.364316 0
M  V30 6 N 1.098280 -2.390280 1.657812 0
M  V30 7 C 0.345652 -3.027090 0.744100 0
M  V30 8 N -0.238297 -2.153508 -0.087846 0
M  V30 9 C 0.134839 -0.921559 0.282745 0
M  V30 10 N -0.165647 0.303799 -0.215134 0
M  V30 11 C -1.057202 0.411226 -1.375031 0
M  V30 12 C 0.380954 1.365950 0.394523 0
M  V30 13 O 0.118804 2.517645 -0.047275 0
M  V30 14 H 2.420137 2.159117 2.906916 0
M  V30 15 H 0.889297 2.963194 2.568318 0
M  V30 16 H 2.254731 3.109662 1.314829 0
M  V30 17 H 1.673430 -2.767864 2.433765 0
M  V30 18 H 0.261490 -4.115067 0.733391 0
M  V30 19 H -2.051690 0.020261 -1.086466 0
M  V30 20 H -0.661067 -0.221213 -2.215477 0
M  V30 21 H -1.054142 1.467324 -1.671260 0
M  V30 END ATOM
M  V30 BEGIN BOND
M  V30 1 1 1 2
M  V30 2 1 2 3
M  V30 3 2 3 4
M  V30 4 1 3 5
M  V30 5 1 5 6
M  V30 6 1 6 7
M  V30 7 2 7 8
M  V30 8 1 8 9
M  V30 9 1 9 10
M  V30 10 1 10 11
M  V30 11 1 10 12
M  V30 12 2 12 13
M  V30 13 1 12 2
M  V30 14 2 9 5
M  V30 15 1 1 14
M  V30 16 1 1 15
M  V30 17 1 1 16
M  V30 18 1 6 17
M  V30 19 1 7 18
M  V30 20 1 11 19
M  V30 21 1 11 20
M  V30 22 1 11 21
M  V30 END BOND
M  V30 END CTAB
M  END
>  <Dataset>  (39) 
OralDrugs

>  <Ligand_Instance>  (39) 
nan

>  <PDB_ID>  (39) 
nan

>  <Standardized_SMILES>  (39) 
Cn1c(=O)c2[nH]cnc2n(C)c1=O

>  <Name>  (39) 
Aminophylline

>  <Pocket>  (39) 
nan

>  <ATP_Site>  (39) 
nan

>  <Peripheral>  (39) 
nan

>  <Num_H_Atoms_ProtBoundConf>  (39) 
nan

>  <Num_Resolved_Atoms>  (39) 
nan

>  <Num_Not_Resolved_Atoms>  (39) 
nan

$$$$
CHEMBL1200584
     RDKit          3D

  0  0  0  0  0  0  0  0  0  0999 V3000
M  V30 BEGIN CTAB
M  V30 COUNTS 18 18 0 0 0
M  V30 BEGIN ATOM
M  V30 1 N -1.818497 1.181746 1.814626 0
M  V30 2 C -0.537956 0.674462 1.527762 0
M  V30 3 C 0.257022 0.238346 2.548318 0
M  V30 4 C 1.524503 -0.264351 2.270266 0
M  V30 5 C 1.929577 -0.301722 0.962049 0
M  V30 6 C 3.279435 -0.848810 0.782139 0
M  V30 7 O 4.096929 -1.277399 1.634822 0
M  V30 8 O 3.989232 -1.025858 -0.406225 0
M  V30 9 C 1.141449 0.134540 -0.088299 0
M  V30 10 O 1.656554 0.048604 -1.371975 0
M  V30 11 C -0.103340 0.624379 0.222929 0
M  V30 12 H -2.695980 0.949248 2.329485 0
M  V30 13 H -1.976449 2.110464 1.374792 0
M  V30 14 H -0.109157 0.290765 3.546569 0
M  V30 15 H 2.117572 -0.598135 3.115103 0
M  V30 16 H 4.859354 -0.527316 -0.593877 0
M  V30 17 H 1.283514 -0.546918 -2.094564 0
M  V30 18 H -0.705786 0.961346 -0.614464 0
M  V30 END ATOM
M  V30 BEGIN BOND
M  V30 1 1 1 2
M  V30 2 2 2 3
M  V30 3 1 3 4
M  V30 4 2 4 5
M  V30 5 1 5 6
M  V30 6 2 6 7
M  V30 7 1 6 8
M  V30 8 1 5 9
M  V30 9 1 9 10
M  V30 10 2 9 11
M  V30 11 1 11 2
M  V30 12 1 1 12
M  V30 13 1 1 13
M  V30 14 1 3 14
M  V30 15 1 4 15
M  V30 16 1 8 16
M  V30 17 1 10 17
M  V30 18 1 11 18
M  V30 END BOND
M  V30 END CTAB
M  END
>  <Dataset>  (40) 
OralDrugs

>  <Ligand_Instance>  (40) 
nan

>  <PDB_ID>  (40) 
nan

>  <Standardized_SMILES>  (40) 
Nc1ccc(C(=O)O)c(O)c1

>  <Name>  (40) 
Aminosalicylate Potassium

>  <Pocket>  (40) 
nan

>  <ATP_Site>  (40) 
nan

>  <Peripheral>  (40) 
nan

>  <Num_H_Atoms_ProtBoundConf>  (40) 
nan

>  <Num_Resolved_Atoms>  (40) 
nan

>  <Num_Not_Resolved_Atoms>  (40) 
nan

$$$$
CHEMBL633
     RDKit          3D

  0  0  0  0  0  0  0  0  0  0999 V3000
M  V30 BEGIN CTAB
M  V30 COUNTS 60 62 0 0 0
M  V30 BEGIN ATOM
M  V30 1 C 2.410968 1.510689 5.081896 0
M  V30 2 C 1.903039 2.912004 5.180539 0
M  V30 3 C 1.109800 3.409093 4.021735 0
M  V30 4 C 1.797076 3.453740 2.706084 0
M  V30 5 C 2.286258 2.193159 2.163651 0
M  V30 6 O 3.558800 1.850410 2.193948 0
M  V30 7 C 3.779828 0.689389 1.657467 0
M  V30 8 C 4.979379 0.030806 1.518316 0
M  V30 9 C 4.962952 -1.210971 0.900005 0
M  V30 10 C 3.739488 -1.717102 0.457256 0
M  V30 11 C 2.578290 -1.001995 0.631009 0
M  V30 12 C 2.557289 0.224504 1.238106 0
M  V30 13 C 1.591929 1.153459 1.545068 0
M  V30 14 C 0.189533 1.147161 1.293260 0
M  V30 15 O -0.296891 2.333305 1.271666 0
M  V30 16 C -0.827286 0.165822 1.058765 0
M  V30 17 C -0.758097 -1.145083 1.542719 0
M  V30 18 C -1.749430 -2.094870 1.283193 0
M  V30 19 I -1.338335 -3.977703 2.159578 0
M  V30 20 C -2.864162 -1.760033 0.517209 0
M  V30 21 O -3.661243 -2.849077 0.419251 0
M  V30 22 C -3.675060 -3.918028 -0.448833 0
M  V30 23 C -3.846888 -3.643374 -1.906102 0
M  V30 24 N -2.847412 -2.828927 -2.510698 0
M  V30 25 C -3.091935 -2.623387 -3.925923 0
M  V30 26 C -2.017452 -1.742786 -4.515731 0
M  V30 27 C -1.501627 -3.308805 -2.309632 0
M  V30 28 C -1.181622 -4.584498 -3.004321 0
M  V30 29 C -2.937198 -0.471575 0.040351 0
M  V30 30 I -4.654208 -0.025043 -1.057781 0
M  V30 31 C -1.948228 0.437888 0.311137 0
M  V30 32 H 3.508714 1.435218 4.881442 0
M  V30 33 H 1.781625 0.954657 4.375608 0
M  V30 34 H 2.286543 1.010649 6.096004 0
M  V30 35 H 1.220595 3.000990 6.080330 0
M  V30 36 H 2.739854 3.617551 5.436964 0
M  V30 37 H 0.208426 2.748719 3.931680 0
M  V30 38 H 0.699773 4.406894 4.303216 0
M  V30 39 H 2.679930 4.155190 2.827577 0
M  V30 40 H 1.170472 3.983575 1.949341 0
M  V30 41 H 5.928804 0.401215 1.851082 0
M  V30 42 H 5.877505 -1.786680 0.757198 0
M  V30 43 H 3.686526 -2.696433 -0.036127 0
M  V30 44 H 1.663600 -1.402316 0.270685 0
M  V30 45 H 0.137016 -1.329652 2.133092 0
M  V30 46 H -4.472727 -4.648596 -0.098117 0
M  V30 47 H -2.733128 -4.543923 -0.322939 0
M  V30 48 H -3.987368 -4.625345 -2.416759 0
M  V30 49 H -4.840997 -3.131492 -2.048462 0
M  V30 50 H -3.036644 -3.595398 -4.488665 0
M  V30 51 H -4.100375 -2.200971 -4.039616 0
M  V30 52 H -1.106104 -2.273140 -4.790366 0
M  V30 53 H -2.486572 -1.218483 -5.400935 0
M  V30 54 H -1.739767 -0.923311 -3.813405 0
M  V30 55 H -0.816897 -2.515293 -2.671545 0
M  V30 56 H -1.255413 -3.428590 -1.235689 0
M  V30 57 H -0.616996 -5.311564 -2.357000 0
M  V30 58 H -2.070838 -5.072683 -3.456322 0
M  V30 59 H -0.488513 -4.378138 -3.842804 0
M  V30 60 H -2.127924 1.414216 -0.123786 0
M  V30 END ATOM
M  V30 BEGIN BOND
M  V30 1 1 1 2
M  V30 2 1 2 3
M  V30 3 1 3 4
M  V30 4 1 4 5
M  V30 5 1 5 6
M  V30 6 1 6 7
M  V30 7 2 7 8
M  V30 8 1 8 9
M  V30 9 2 9 10
M  V30 10 1 10 11
M  V30 11 2 11 12
M  V30 12 1 12 13
M  V30 13 1 13 14
M  V30 14 2 14 15
M  V30 15 1 14 16
M  V30 16 2 16 17
M  V30 17 1 17 18
M  V30 18 1 18 19
M  V30 19 2 18 20
M  V30 20 1 20 21
M  V30 21 1 21 22
M  V30 22 1 22 23
M  V30 23 1 23 24
M  V30 24 1 24 25
M  V30 25 1 25 26
M  V30 26 1 24 27
M  V30 27 1 27 28
M  V30 28 1 20 29
M  V30 29 1 29 30
M  V30 30 2 29 31
M  V30 31 2 13 5
M  V30 32 1 31 16
M  V30 33 1 12 7
M  V30 34 1 1 32
M  V30 35 1 1 33
M  V30 36 1 1 34
M  V30 37 1 2 35
M  V30 38 1 2 36
M  V30 39 1 3 37
M  V30 40 1 3 38
M  V30 41 1 4 39
M  V30 42 1 4 40
M  V30 43 1 8 41
M  V30 44 1 9 42
M  V30 45 1 10 43
M  V30 46 1 11 44
M  V30 47 1 17 45
M  V30 48 1 22 46
M  V30 49 1 22 47
M  V30 50 1 23 48
M  V30 51 1 23 49
M  V30 52 1 25 50
M  V30 53 1 25 51
M  V30 54 1 26 52
M  V30 55 1 26 53
M  V30 56 1 26 54
M  V30 57 1 27 55
M  V30 58 1 27 56
M  V30 59 1 28 57
M  V30 60 1 28 58
M  V30 61 1 28 59
M  V30 62 1 31 60
M  V30 END BOND
M  V30 END CTAB
M  END
>  <Dataset>  (41) 
OralDrugs

>  <Ligand_Instance>  (41) 
nan

>  <PDB_ID>  (41) 
nan

>  <Standardized_SMILES>  (41) 
CCCCc1oc2ccccc2c1C(=O)c1cc(I)c(OCCN(CC)CC)c(I)c1

>  <Name>  (41) 
Amiodarone

>  <Pocket>  (41) 
nan

>  <ATP_Site>  (41) 
nan

>  <Peripheral>  (41) 
nan

>  <Num_H_Atoms_ProtBoundConf>  (41) 
nan

>  <Num_Resolved_Atoms>  (41) 
nan

>  <Num_Not_Resolved_Atoms>  (41) 
nan

$$$$
CHEMBL629
     RDKit          3D

  0  0  0  0  0  0  0  0  0  0999 V3000
M  V30 BEGIN CTAB
M  V30 COUNTS 44 46 0 0 0
M  V30 BEGIN ATOM
M  V30 1 C -3.140599 -3.450689 0.687409 0
M  V30 2 N -2.064870 -3.804873 -0.217127 0
M  V30 3 C -2.682857 -4.112424 -1.503345 0
M  V30 4 C -1.139744 -2.737843 -0.431805 0
M  V30 5 C -0.321898 -2.394034 0.772758 0
M  V30 6 C 0.609537 -1.279915 0.477486 0
M  V30 7 C 1.030652 -0.024854 0.731520 0
M  V30 8 C 2.171676 0.534441 -0.046081 0
M  V30 9 C 2.105782 0.033974 -1.325496 0
M  V30 10 C 3.126525 0.458513 -2.130908 0
M  V30 11 C 4.114349 1.321023 -1.640010 0
M  V30 12 C 4.098811 1.776915 -0.331022 0
M  V30 13 C 3.086221 1.384151 0.547401 0
M  V30 14 C 3.288323 2.001488 1.842060 0
M  V30 15 C 2.384368 1.794925 2.957732 0
M  V30 16 C 0.985867 1.453095 2.764518 0
M  V30 17 C 0.139349 2.025696 3.734954 0
M  V30 18 C -1.212349 1.772668 3.654799 0
M  V30 19 C -1.846316 1.001468 2.705015 0
M  V30 20 C -1.075328 0.420752 1.737307 0
M  V30 21 C 0.290924 0.674413 1.817622 0
M  V30 22 H -2.853916 -3.766007 1.713785 0
M  V30 23 H -4.026579 -4.051898 0.388637 0
M  V30 24 H -3.416190 -2.398215 0.619224 0
M  V30 25 H -3.624337 -3.558342 -1.668187 0
M  V30 26 H -2.000232 -3.992214 -2.358910 0
M  V30 27 H -2.956939 -5.188781 -1.457562 0
M  V30 28 H -0.416854 -3.111948 -1.214945 0
M  V30 29 H -1.630338 -1.864338 -0.883611 0
M  V30 30 H 0.320780 -3.289152 1.058947 0
M  V30 31 H -0.913703 -2.240128 1.701539 0
M  V30 32 H 1.196959 -1.769678 -0.275947 0
M  V30 33 H 1.321334 -0.605133 -1.650105 0
M  V30 34 H 3.202580 0.147930 -3.155462 0
M  V30 35 H 4.908530 1.628405 -2.326509 0
M  V30 36 H 4.918845 2.441688 -0.068963 0
M  V30 37 H 4.329207 1.708468 2.181560 0
M  V30 38 H 3.429811 3.114018 1.651838 0
M  V30 39 H 2.799222 1.025032 3.678819 0
M  V30 40 H 2.391181 2.728226 3.600017 0
M  V30 41 H 0.577040 2.642419 4.507129 0
M  V30 42 H -1.826540 2.245933 4.442397 0
M  V30 43 H -2.891712 0.827022 2.674348 0
M  V30 44 H -1.388687 -0.193017 0.914760 0
M  V30 END ATOM
M  V30 BEGIN BOND
M  V30 1 1 1 2
M  V30 2 1 2 3
M  V30 3 1 2 4
M  V30 4 1 4 5
M  V30 5 1 5 6
M  V30 6 2 6 7 CFG=2
M  V30 7 1 7 8
M  V30 8 2 8 9
M  V30 9 1 9 10
M  V30 10 2 10 11
M  V30 11 1 11 12
M  V30 12 2 12 13
M  V30 13 1 13 14
M  V30 14 1 14 15
M  V30 15 1 15 16
M  V30 16 2 16 17
M  V30 17 1 17 18
M  V30 18 2 18 19
M  V30 19 1 19 20
M  V30 20 2 20 21
M  V30 21 1 21 7
M  V30 22 1 13 8
M  V30 23 1 21 16
M  V30 24 1 1 22
M  V30 25 1 1 23
M  V30 26 1 1 24
M  V30 27 1 3 25
M  V30 28 1 3 26
M  V30 29 1 3 27
M  V30 30 1 4 28
M  V30 31 1 4 29
M  V30 32 1 5 30
M  V30 33 1 5 31
M  V30 34 1 6 32
M  V30 35 1 9 33
M  V30 36 1 10 34
M  V30 37 1 11 35
M  V30 38 1 12 36
M  V30 39 1 14 37
M  V30 40 1 14 38
M  V30 41 1 15 39
M  V30 42 1 15 40
M  V30 43 1 17 41
M  V30 44 1 18 42
M  V30 45 1 19 43
M  V30 46 1 20 44
M  V30 END BOND
M  V30 END CTAB
M  END
>  <Dataset>  (42) 
OralDrugs

>  <Ligand_Instance>  (42) 
nan

>  <PDB_ID>  (42) 
nan

>  <Standardized_SMILES>  (42) 
CN(C)CCC=C1c2ccccc2CCc2ccccc21

>  <Name>  (42) 
Amitriptyline

>  <Pocket>  (42) 
nan

>  <ATP_Site>  (42) 
nan

>  <Peripheral>  (42) 
nan

>  <Num_H_Atoms_ProtBoundConf>  (42) 
nan

>  <Num_Resolved_Atoms>  (42) 
nan

>  <Num_Not_Resolved_Atoms>  (42) 
nan

$$$$
CHEMBL1491
     RDKit          3D

  0  0  0  0  0  0  0  0  0  0999 V3000
M  V30 BEGIN CTAB
M  V30 COUNTS 53 54 0 0 0
M  V30 BEGIN ATOM
M  V30 1 C -0.046512 -1.833832 4.928862 0
M  V30 2 C 0.690722 -2.668340 3.936726 0
M  V30 3 O 0.291491 -2.491608 2.593294 0
M  V30 4 C 0.356941 -1.293666 1.936215 0
M  V30 5 O 0.800335 -0.966494 3.060666 0
M  V30 6 C 0.119692 -0.578944 0.693575 0
M  V30 7 C 0.424680 0.690855 0.682931 0
M  V30 8 C 0.973777 1.638328 1.678473 0
M  V30 9 O 2.172285 2.095383 1.089856 0
M  V30 10 C 2.824425 2.996483 1.881936 0
M  V30 11 C 3.243994 2.473323 3.236033 0
M  V30 12 N 4.138737 1.353063 3.009203 0
M  V30 13 N 0.223613 1.215213 -0.654124 0
M  V30 14 C -0.231234 0.500035 -1.796133 0
M  V30 15 C -0.332307 1.297453 -3.067477 0
M  V30 16 C -0.520628 -0.808304 -1.637912 0
M  V30 17 C -0.967149 -1.461639 -2.844903 0
M  V30 18 O -1.068638 -0.840895 -3.915682 0
M  V30 19 O -1.404354 -2.429944 -3.686452 0
M  V30 20 C -1.678918 -2.263648 -5.027116 0
M  V30 21 C -0.435925 -1.444966 -0.294961 0
M  V30 22 C -1.636471 -2.225079 0.067736 0
M  V30 23 C -1.950072 -3.377573 -0.596122 0
M  V30 24 C -2.976090 -4.247126 -0.330064 0
M  V30 25 C -3.825608 -3.954616 0.743703 0
M  V30 26 C -3.558970 -2.805166 1.451386 0
M  V30 27 C -2.507419 -1.979861 1.121273 0
M  V30 28 Cl -2.368616 -0.536968 2.096128 0
M  V30 29 H -0.258732 -2.464713 5.830077 0
M  V30 30 H 0.531269 -0.966503 5.334044 0
M  V30 31 H -1.021972 -1.501614 4.572755 0
M  V30 32 H 1.794167 -2.580858 4.069044 0
M  V30 33 H 0.471824 -3.744970 4.160499 0
M  V30 34 H 0.283368 2.483984 1.876204 0
M  V30 35 H 1.262270 1.211536 2.628953 0
M  V30 36 H 2.071433 3.810271 2.099108 0
M  V30 37 H 3.647939 3.525479 1.368283 0
M  V30 38 H 3.863078 3.248887 3.766921 0
M  V30 39 H 2.416372 2.254321 3.916566 0
M  V30 40 H 3.747933 0.443339 3.318176 0
M  V30 41 H 5.084333 1.480676 3.433777 0
M  V30 42 H 0.445859 2.252407 -0.767138 0
M  V30 43 H -1.371384 1.354957 -3.451531 0
M  V30 44 H -0.010132 2.370120 -2.892060 0
M  V30 45 H 0.312961 0.919174 -3.859355 0
M  V30 46 H -1.980285 -3.292328 -5.402874 0
M  V30 47 H -2.530451 -1.599154 -5.179192 0
M  V30 48 H -0.829376 -1.906701 -5.657328 0
M  V30 49 H 0.356067 -2.288123 -0.454763 0
M  V30 50 H -1.364796 -3.740460 -1.427332 0
M  V30 51 H -3.208999 -5.151455 -0.867778 0
M  V30 52 H -4.646762 -4.586759 1.010040 0
M  V30 53 H -4.231699 -2.596964 2.285454 0
M  V30 END ATOM
M  V30 BEGIN BOND
M  V30 1 1 1 2
M  V30 2 1 2 3
M  V30 3 1 3 4
M  V30 4 2 4 5
M  V30 5 1 4 6
M  V30 6 2 6 7
M  V30 7 1 7 8
M  V30 8 1 8 9
M  V30 9 1 9 10
M  V30 10 1 10 11
M  V30 11 1 11 12
M  V30 12 1 7 13
M  V30 13 1 13 14
M  V30 14 1 14 15
M  V30 15 2 14 16
M  V30 16 1 16 17
M  V30 17 2 17 18
M  V30 18 1 17 19
M  V30 19 1 19 20
M  V30 20 1 16 21
M  V30 21 1 21 22
M  V30 22 2 22 23
M  V30 23 1 23 24
M  V30 24 2 24 25
M  V30 25 1 25 26
M  V30 26 2 26 27
M  V30 27 1 27 28
M  V30 28 1 21 6
M  V30 29 1 27 22
M  V30 30 1 1 29
M  V30 31 1 1 30
M  V30 32 1 1 31
M  V30 33 1 2 32
M  V30 34 1 2 33
M  V30 35 1 8 34
M  V30 36 1 8 35
M  V30 37 1 10 36
M  V30 38 1 10 37
M  V30 39 1 11 38
M  V30 40 1 11 39
M  V30 41 1 12 40
M  V30 42 1 12 41
M  V30 43 1 13 42
M  V30 44 1 15 43
M  V30 45 1 15 44
M  V30 46 1 15 45
M  V30 47 1 20 46
M  V30 48 1 20 47
M  V30 49 1 20 48
M  V30 50 1 21 49
M  V30 51 1 23 50
M  V30 52 1 24 51
M  V30 53 1 25 52
M  V30 54 1 26 53
M  V30 END BOND
M  V30 END CTAB
M  END
>  <Dataset>  (43) 
OralDrugs

>  <Ligand_Instance>  (43) 
nan

>  <PDB_ID>  (43) 
nan

>  <Standardized_SMILES>  (43) 
CCOC(=O)C1=C(COCCN)NC(C)=C(C(=O)OC)C1c1ccccc1Cl

>  <Name>  (43) 
Amlodipine

>  <Pocket>  (43) 
nan

>  <ATP_Site>  (43) 
nan

>  <Peripheral>  (43) 
nan

>  <Num_H_Atoms_ProtBoundConf>  (43) 
nan

>  <Num_Resolved_Atoms>  (43) 
nan

>  <Num_Not_Resolved_Atoms>  (43) 
nan

$$$$
CHEMBL682
     RDKit          3D

  0  0  0  0  0  0  0  0  0  0999 V3000
M  V30 BEGIN CTAB
M  V30 COUNTS 47 49 0 0 0
M  V30 BEGIN ATOM
M  V30 1 C -0.831810 -5.513080 0.786432 0
M  V30 2 C -0.078838 -4.353297 1.378582 0
M  V30 3 N -0.776147 -3.115973 1.306615 0
M  V30 4 C -0.919318 -2.602399 0.004229 0
M  V30 5 C 0.351965 -2.137151 -0.671913 0
M  V30 6 C -0.475527 -2.243691 2.372092 0
M  V30 7 C -1.129063 -0.940562 2.387877 0
M  V30 8 C -0.436638 0.201617 2.040829 0
M  V30 9 C -0.982848 1.476643 2.034398 0
M  V30 10 N -0.247048 2.644561 1.674019 0
M  V30 11 C 1.064032 2.673237 1.133942 0
M  V30 12 C 1.953075 3.323352 1.954643 0
M  V30 13 C 3.290716 3.436413 1.565267 0
M  V30 14 N 3.710007 2.912689 0.392861 0
M  V30 15 C 2.830884 2.279332 -0.401665 0
M  V30 16 C 3.192704 1.727776 -1.613390 0
M  V30 17 C 2.292577 1.079054 -2.440718 0
M  V30 18 Cl 2.811032 0.391439 -3.981730 0
M  V30 19 C 0.973178 0.984459 -2.025762 0
M  V30 20 C 0.526031 1.510862 -0.822569 0
M  V30 21 C 1.488965 2.138101 -0.063117 0
M  V30 22 C -2.305085 1.604463 2.399370 0
M  V30 23 C -3.008175 0.445690 2.751558 0
M  V30 24 C -2.450154 -0.824255 2.754102 0
M  V30 25 O -3.242007 -1.901657 3.121678 0
M  V30 26 H -1.583881 -5.262129 0.043372 0
M  V30 27 H -0.091096 -6.199175 0.298311 0
M  V30 28 H -1.321332 -6.130020 1.577204 0
M  V30 29 H 0.218425 -4.632860 2.411094 0
M  V30 30 H 0.872499 -4.230191 0.791192 0
M  V30 31 H -1.336090 -3.386814 -0.658558 0
M  V30 32 H -1.691424 -1.781385 -0.045286 0
M  V30 33 H 0.889922 -1.352624 -0.142160 0
M  V30 34 H 0.058615 -1.839885 -1.715367 0
M  V30 35 H 1.068586 -2.973342 -0.804177 0
M  V30 36 H 0.639462 -2.113140 2.487214 0
M  V30 37 H -0.772786 -2.759571 3.332676 0
M  V30 38 H 0.621064 0.126092 1.745354 0
M  V30 39 H -0.665002 3.570473 1.799150 0
M  V30 40 H 1.746336 3.791795 2.925965 0
M  V30 41 H 4.084095 3.931841 2.137844 0
M  V30 42 H 4.230502 1.802071 -1.940350 0
M  V30 43 H 0.256117 0.471066 -2.680210 0
M  V30 44 H -0.493288 1.434335 -0.525811 0
M  V30 45 H -2.828296 2.553094 2.428396 0
M  V30 46 H -4.050577 0.567367 3.036529 0
M  V30 47 H -2.864273 -2.728890 3.581584 0
M  V30 END ATOM
M  V30 BEGIN BOND
M  V30 1 1 1 2
M  V30 2 1 2 3
M  V30 3 1 3 4
M  V30 4 1 4 5
M  V30 5 1 3 6
M  V30 6 1 6 7
M  V30 7 2 7 8
M  V30 8 1 8 9
M  V30 9 1 9 10
M  V30 10 1 10 11
M  V30 11 2 11 12
M  V30 12 1 12 13
M  V30 13 2 13 14
M  V30 14 1 14 15
M  V30 15 2 15 16
M  V30 16 1 16 17
M  V30 17 1 17 18
M  V30 18 2 17 19
M  V30 19 1 19 20
M  V30 20 2 20 21
M  V30 21 2 9 22
M  V30 22 1 22 23
M  V30 23 2 23 24
M  V30 24 1 24 25
M  V30 25 1 24 7
M  V30 26 1 21 11
M  V30 27 1 21 15
M  V30 28 1 1 26
M  V30 29 1 1 27
M  V30 30 1 1 28
M  V30 31 1 2 29
M  V30 32 1 2 30
M  V30 33 1 4 31
M  V30 34 1 4 32
M  V30 35 1 5 33
M  V30 36 1 5 34
M  V30 37 1 5 35
M  V30 38 1 6 36
M  V30 39 1 6 37
M  V30 40 1 8 38
M  V30 41 1 10 39
M  V30 42 1 12 40
M  V30 43 1 13 41
M  V30 44 1 16 42
M  V30 45 1 19 43
M  V30 46 1 20 44
M  V30 47 1 22 45
M  V30 48 1 23 46
M  V30 49 1 25 47
M  V30 END BOND
M  V30 END CTAB
M  END
>  <Dataset>  (44) 
OralDrugs

>  <Ligand_Instance>  (44) 
nan

>  <PDB_ID>  (44) 
nan

>  <Standardized_SMILES>  (44) 
CCN(CC)Cc1cc(Nc2ccnc3cc(Cl)ccc23)ccc1O

>  <Name>  (44) 
Amodiaquine

>  <Pocket>  (44) 
nan

>  <ATP_Site>  (44) 
nan

>  <Peripheral>  (44) 
nan

>  <Num_H_Atoms_ProtBoundConf>  (44) 
nan

>  <Num_Resolved_Atoms>  (44) 
nan

>  <Num_Not_Resolved_Atoms>  (44) 
nan

$$$$
CHEMBL1113
     RDKit          3D

  0  0  0  0  0  0  0  0  0  0999 V3000
M  V30 BEGIN CTAB
M  V30 COUNTS 38 41 0 0 0
M  V30 BEGIN ATOM
M  V30 1 Cl -0.570683 -4.959606 -0.775499 0
M  V30 2 C 0.032355 -3.826988 0.412011 0
M  V30 3 C 0.565734 -4.217743 1.635051 0
M  V30 4 C 1.034596 -3.304133 2.554265 0
M  V30 5 C 0.988204 -1.955771 2.284903 0
M  V30 6 C 0.463802 -1.537178 1.078187 0
M  V30 7 C 0.000207 -2.469262 0.172859 0
M  V30 8 C 0.301582 -0.185132 0.553293 0
M  V30 9 N 0.148331 -0.052092 -0.870463 0
M  V30 10 C 1.270946 -0.409696 -1.719390 0
M  V30 11 C 0.789803 -0.397544 -3.136610 0
M  V30 12 N -0.600739 -0.663744 -3.315454 0
M  V30 13 C -1.424397 0.348730 -2.732458 0
M  V30 14 C -1.161273 0.440667 -1.262167 0
M  V30 15 N 0.281352 0.924524 1.250680 0
M  V30 16 C 0.411168 1.085911 2.678637 0
M  V30 17 C -0.083727 2.311446 3.100821 0
M  V30 18 C -0.022160 2.599967 4.453455 0
M  V30 19 C 0.509772 1.710421 5.362530 0
M  V30 20 C 1.007467 0.477030 4.934988 0
M  V30 21 C 0.954880 0.166157 3.574340 0
M  V30 22 O 1.481763 -1.094603 3.265004 0
M  V30 23 H 0.603422 -5.275913 1.849239 0
M  V30 24 H 1.451861 -3.593894 3.509098 0
M  V30 25 H -0.404606 -2.110747 -0.763046 0
M  V30 26 H 1.774263 -1.327914 -1.395438 0
M  V30 27 H 2.009561 0.429704 -1.581148 0
M  V30 28 H 0.984848 0.595317 -3.632183 0
M  V30 29 H 1.354175 -1.127313 -3.785777 0
M  V30 30 H -0.941737 -1.587952 -3.044572 0
M  V30 31 H -1.202549 1.310873 -3.274534 0
M  V30 32 H -2.496646 0.151533 -2.936626 0
M  V30 33 H -1.173690 1.518751 -0.927996 0
M  V30 34 H -1.942133 -0.048943 -0.627097 0
M  V30 35 H -0.504244 3.011392 2.371767 0
M  V30 36 H -0.412060 3.570040 4.800518 0
M  V30 37 H 0.568658 1.913319 6.423382 0
M  V30 38 H 1.426613 -0.240748 5.597613 0
M  V30 END ATOM
M  V30 BEGIN BOND
M  V30 1 1 1 2
M  V30 2 2 2 3
M  V30 3 1 3 4
M  V30 4 2 4 5
M  V30 5 1 5 6
M  V30 6 2 6 7
M  V30 7 1 6 8
M  V30 8 1 8 9
M  V30 9 1 9 10
M  V30 10 1 10 11
M  V30 11 1 11 12
M  V30 12 1 12 13
M  V30 13 1 13 14
M  V30 14 2 8 15
M  V30 15 1 15 16
M  V30 16 2 16 17
M  V30 17 1 17 18
M  V30 18 2 18 19
M  V30 19 1 19 20
M  V30 20 2 20 21
M  V30 21 1 21 22
M  V30 22 1 7 2
M  V30 23 1 14 9
M  V30 24 1 21 16
M  V30 25 1 22 5
M  V30 26 1 3 23
M  V30 27 1 4 24
M  V30 28 1 7 25
M  V30 29 1 10 26
M  V30 30 1 10 27
M  V30 31 1 11 28
M  V30 32 1 11 29
M  V30 33 1 12 30
M  V30 34 1 13 31
M  V30 35 1 13 32
M  V30 36 1 14 33
M  V30 37 1 14 34
M  V30 38 1 17 35
M  V30 39 1 18 36
M  V30 40 1 19 37
M  V30 41 1 20 38
M  V30 END BOND
M  V30 END CTAB
M  END
>  <Dataset>  (45) 
OralDrugs

>  <Ligand_Instance>  (45) 
nan

>  <PDB_ID>  (45) 
nan

>  <Standardized_SMILES>  (45) 
Clc1ccc2c(c1)C(N1CCNCC1)=Nc1ccccc1O2

>  <Name>  (45) 
Amoxapine

>  <Pocket>  (45) 
nan

>  <ATP_Site>  (45) 
nan

>  <Peripheral>  (45) 
nan

>  <Num_H_Atoms_ProtBoundConf>  (45) 
nan

>  <Num_Resolved_Atoms>  (45) 
nan

>  <Num_Not_Resolved_Atoms>  (45) 
nan

$$$$
CHEMBL1082
     RDKit          3D

  0  0  0  0  0  0  0  0  0  0999 V3000
M  V30 BEGIN CTAB
M  V30 COUNTS 44 46 0 0 0
M  V30 BEGIN ATOM
M  V30 1 C -3.572680 -3.407052 -0.638898 0
M  V30 2 C -2.447839 -2.738214 0.073512 0
M  V30 3 C -1.174443 -3.532226 -0.086642 0
M  V30 4 S -2.217466 -1.006314 -0.431185 0
M  V30 5 C -2.182998 -0.278943 1.232670 0 CFG=2
M  V30 6 C -0.879233 0.349474 1.626509 0 CFG=2
M  V30 7 N 0.208485 0.202309 0.715363 0
M  V30 8 C 1.077409 1.231835 0.309529 0
M  V30 9 O 0.864617 2.372756 0.800153 0
M  V30 10 C 2.204753 1.092501 -0.631289 0 CFG=2
M  V30 11 N 2.371334 -0.246177 -1.143566 0
M  V30 12 C 3.450574 1.578199 0.042807 0
M  V30 13 C 3.989616 2.841258 -0.151610 0
M  V30 14 C 5.145506 3.234797 0.500271 0
M  V30 15 C 5.797700 2.382357 1.364150 0
M  V30 16 O 6.946819 2.673624 2.058330 0
M  V30 17 C 5.294288 1.116740 1.585471 0
M  V30 18 C 4.127584 0.753970 0.911572 0
M  V30 19 C -0.925688 -0.649646 2.719167 0
M  V30 20 O -0.413244 -0.868033 3.861986 0
M  V30 21 N -1.886721 -1.465182 2.014281 0
M  V30 22 C -2.720554 -2.559981 1.554490 0 CFG=1
M  V30 23 C -4.138197 -2.161797 1.817085 0
M  V30 24 O -4.725716 -1.153492 2.316809 0
M  V30 25 O -5.503839 -2.265546 1.844266 0
M  V30 26 H -4.224798 -2.725539 -1.196065 0
M  V30 27 H -3.139952 -4.112510 -1.377939 0
M  V30 28 H -4.142650 -4.055565 0.076692 0
M  V30 29 H -0.525771 -3.377391 0.777213 0
M  V30 30 H -0.645072 -3.299605 -1.026949 0
M  V30 31 H -1.455511 -4.605599 -0.100943 0
M  V30 32 H -3.075248 0.285775 1.512161 0
M  V30 33 H -1.061324 1.358238 2.051257 0
M  V30 34 H 0.362518 -0.746451 0.325867 0
M  V30 35 H 2.054301 1.764567 -1.487607 0
M  V30 36 H 2.488501 -0.973864 -0.418060 0
M  V30 37 H 3.137293 -0.206988 -1.833824 0
M  V30 38 H 3.463453 3.505242 -0.837683 0
M  V30 39 H 5.563181 4.208209 0.352170 0
M  V30 40 H 6.994203 3.229740 2.887331 0
M  V30 41 H 5.728854 0.360320 2.248320 0
M  V30 42 H 3.719028 -0.225201 1.069054 0
M  V30 43 H -2.503924 -3.483031 2.127331 0
M  V30 44 H -6.029263 -3.068382 1.464031 0
M  V30 END ATOM
M  V30 BEGIN BOND
M  V30 1 1 1 2
M  V30 2 1 2 3
M  V30 3 1 2 4
M  V30 4 1 4 5
M  V30 5 1 5 6
M  V30 6 1 6 7
M  V30 7 1 7 8
M  V30 8 2 8 9
M  V30 9 1 8 10
M  V30 10 1 10 11
M  V30 11 1 10 12
M  V30 12 2 12 13
M  V30 13 1 13 14
M  V30 14 2 14 15
M  V30 15 1 15 16
M  V30 16 1 15 17
M  V30 17 2 17 18
M  V30 18 1 6 19
M  V30 19 2 19 20
M  V30 20 1 19 21
M  V30 21 1 21 22
M  V30 22 1 22 23
M  V30 23 2 23 24
M  V30 24 1 23 25
M  V30 25 1 22 2
M  V30 26 1 21 5
M  V30 27 1 18 12
M  V30 28 1 1 26
M  V30 29 1 1 27
M  V30 30 1 1 28
M  V30 31 1 3 29
M  V30 32 1 3 30
M  V30 33 1 3 31
M  V30 34 1 5 32 CFG=1
M  V30 35 1 6 33 CFG=1
M  V30 36 1 7 34
M  V30 37 1 10 35 CFG=3
M  V30 38 1 11 36
M  V30 39 1 11 37
M  V30 40 1 13 38
M  V30 41 1 14 39
M  V30 42 1 16 40
M  V30 43 1 17 41
M  V30 44 1 18 42
M  V30 45 1 22 43 CFG=1
M  V30 46 1 25 44
M  V30 END BOND
M  V30 END CTAB
M  END
>  <Dataset>  (46) 
OralDrugs

>  <Ligand_Instance>  (46) 
nan

>  <PDB_ID>  (46) 
nan

>  <Standardized_SMILES>  (46) 
CC1(C)S[C@@H]2[C@H](NC(=O)[C@H](N)c3ccc(O)cc3)C(=O)N2[C@H]1C(=O)O

>  <Name>  (46) 
Amoxicillin

>  <Pocket>  (46) 
nan

>  <ATP_Site>  (46) 
nan

>  <Peripheral>  (46) 
nan

>  <Num_H_Atoms_ProtBoundConf>  (46) 
nan

>  <Num_Resolved_Atoms>  (46) 
nan

>  <Num_Not_Resolved_Atoms>  (46) 
nan

$$$$
CHEMBL405
     RDKit          3D

  0  0  0  0  0  0  0  0  0  0999 V3000
M  V30 BEGIN CTAB
M  V30 COUNTS 23 23 0 0 0
M  V30 BEGIN ATOM
M  V30 1 C 1.538600 1.898370 1.419849 0
M  V30 2 C 2.073576 0.513313 1.735095 0
M  V30 3 N 1.342039 -0.028074 2.862241 0
M  V30 4 C 1.885010 -0.431154 0.567995 0
M  V30 5 C 0.415606 -0.536015 0.261736 0
M  V30 6 C -0.387744 -1.488550 0.857680 0
M  V30 7 C -1.732151 -1.524985 0.526735 0
M  V30 8 C -2.192295 -0.598980 -0.386817 0
M  V30 9 C -1.425001 0.368119 -1.004895 0
M  V30 10 C -0.078966 0.386702 -0.658286 0
M  V30 11 H 2.019049 2.340476 0.545746 0
M  V30 12 H 0.435760 1.810178 1.338268 0
M  V30 13 H 1.728168 2.532788 2.296324 0
M  V30 14 H 3.143629 0.515909 1.989683 0
M  V30 15 H 0.319633 0.069671 2.681771 0
M  V30 16 H 1.596602 -1.021428 3.032429 0
M  V30 17 H 2.405526 -0.103429 -0.333251 0
M  V30 18 H 2.279818 -1.410619 0.857436 0
M  V30 19 H 0.032125 -2.189381 1.568380 0
M  V30 20 H -2.410358 -2.249532 0.961962 0
M  V30 21 H -3.247314 -0.579698 -0.687391 0
M  V30 22 H -1.806388 1.073828 -1.709362 0
M  V30 23 H 0.579725 1.129332 -1.114214 0
M  V30 END ATOM
M  V30 BEGIN BOND
M  V30 1 1 1 2
M  V30 2 1 2 3
M  V30 3 1 2 4
M  V30 4 1 4 5
M  V30 5 2 5 6
M  V30 6 1 6 7
M  V30 7 2 7 8
M  V30 8 1 8 9
M  V30 9 2 9 10
M  V30 10 1 10 5
M  V30 11 1 1 11
M  V30 12 1 1 12
M  V30 13 1 1 13
M  V30 14 1 2 14
M  V30 15 1 3 15
M  V30 16 1 3 16
M  V30 17 1 4 17
M  V30 18 1 4 18
M  V30 19 1 6 19
M  V30 20 1 7 20
M  V30 21 1 8 21
M  V30 22 1 9 22
M  V30 23 1 10 23
M  V30 END BOND
M  V30 END CTAB
M  END
>  <Dataset>  (47) 
OralDrugs

>  <Ligand_Instance>  (47) 
nan

>  <PDB_ID>  (47) 
nan

>  <Standardized_SMILES>  (47) 
CC(N)Cc1ccccc1

>  <Name>  (47) 
Amphetamine

>  <Pocket>  (47) 
nan

>  <ATP_Site>  (47) 
nan

>  <Peripheral>  (47) 
nan

>  <Num_H_Atoms_ProtBoundConf>  (47) 
nan

>  <Num_Resolved_Atoms>  (47) 
nan

>  <Num_Not_Resolved_Atoms>  (47) 
nan

$$$$
CHEMBL267345
     RDKit          3D

  0  0  0  0  0  0  0  0  0  0999 V3000
M  V30 BEGIN CTAB
M  V30 COUNTS 138 140 0 0 0
M  V30 BEGIN ATOM
M  V30 1 C -0.825628 -5.145602 0.535829 0
M  V30 2 C 0.428310 -5.406903 -0.291278 0 CFG=2
M  V30 3 C 0.073378 -6.392688 -1.378579 0 CFG=2
M  V30 4 O 1.122195 -6.557986 -2.217856 0
M  V30 5 C -1.165625 -5.900772 -2.032053 0 CFG=1
M  V30 6 C -1.250678 -5.908867 -3.508166 0
M  V30 7 C -2.454029 -6.166847 -1.335922 0
M  V30 8 C -3.188304 -7.070035 -0.641012 0
M  V30 9 C -4.526260 -6.706791 -0.118745 0
M  V30 10 C -5.020441 -5.466948 -0.168716 0
M  V30 11 C -5.772635 -4.153669 -0.128381 0
M  V30 12 C -6.520671 -3.028669 -0.058087 0
M  V30 13 C -5.711083 -1.835200 -0.453551 0
M  V30 14 C -4.478820 -1.633902 -0.732607 0
M  V30 15 C -3.076370 -1.312988 -1.070016 0
M  V30 16 C -2.823325 -0.062673 -1.436883 0
M  V30 17 C -1.396400 0.217751 -1.754677 0
M  V30 18 C -0.154675 -0.241277 -1.817828 0
M  V30 19 C 0.972174 0.631424 -2.290933 0
M  V30 20 C 0.821599 1.903118 -2.702649 0
M  V30 21 C 0.902126 3.326830 -3.206594 0 CFG=2
M  V30 22 O 0.542894 3.302626 -4.582074 0
M  V30 23 C -0.799089 3.117424 -4.751855 0 CFG=2
M  V30 24 O -1.077157 2.259041 -5.737840 0
M  V30 25 C -2.327318 2.027786 -6.193335 0 CFG=2
M  V30 26 C -2.299991 2.283231 -7.708211 0
M  V30 27 C -3.470881 2.766089 -5.625414 0 CFG=1
M  V30 28 O -4.397648 1.803318 -5.096296 0
M  V30 29 C -3.091871 3.669637 -4.508975 0 CFG=2
M  V30 30 N -4.082037 4.596316 -4.121262 0
M  V30 31 C -1.716995 4.330577 -4.823985 0 CFG=2
M  V30 32 O -1.779852 4.972037 -6.010792 0
M  V30 33 C 2.145536 4.018884 -3.037802 0
M  V30 34 C 2.588909 4.351931 -1.627493 0 CFG=2
M  V30 35 O 1.446452 4.350286 -0.787796 0
M  V30 36 C 1.951534 4.588941 0.482765 0 CFG=2
M  V30 37 O 3.307872 4.143273 0.568838 0
M  V30 38 C 1.225004 3.861579 1.580833 0
M  V30 39 C -0.102029 4.421603 1.979669 0 CFG=1
M  V30 40 O -1.046054 4.391082 0.944369 0
M  V30 41 C -0.687306 3.855269 3.220414 0
M  V30 42 C -0.867685 2.315556 3.178233 0 CFG=1
M  V30 43 O 0.482840 1.881314 3.114470 0
M  V30 44 C -1.366422 1.935117 4.523457 0 CFG=2
M  V30 45 O -0.703676 2.785146 5.489784 0
M  V30 46 C -1.052434 0.573643 5.052153 0
M  V30 47 C 0.406900 0.357035 5.405990 0
M  V30 48 C 0.560145 -0.942433 6.172246 0 CFG=1
M  V30 49 O -0.296204 -0.916739 7.284910 0
M  V30 50 C 0.380928 -2.185389 5.410214 0
M  V30 51 C 1.450246 -2.390926 4.319290 0 CFG=1
M  V30 52 O 2.685652 -2.519131 4.953289 0
M  V30 53 C 1.091844 -3.736043 3.696334 0
M  V30 54 C 1.927920 -4.138605 2.560854 0
M  V30 55 O 2.808897 -4.282487 1.706977 0
M  V30 56 O 1.349966 -5.069697 1.850562 0
M  V30 57 C 1.430858 -5.901324 0.763996 0 CFG=1
M  V30 58 C 1.227841 -7.324203 1.137600 0
M  V30 59 C 2.044169 6.073339 0.614471 0
M  V30 60 C 2.778302 6.671293 -0.554032 0 CFG=2
M  V30 61 O 2.097551 7.762523 -1.080069 0
M  V30 62 C 3.214364 5.692847 -1.599731 0 CFG=1
M  V30 63 C 4.739249 5.531740 -1.515847 0
M  V30 64 O 5.562487 4.586843 -1.439789 0
M  V30 65 O 5.998442 6.070873 -1.462868 0
M  V30 66 H -1.226933 -6.038653 1.004982 0
M  V30 67 H -0.447430 -4.535049 1.433535 0
M  V30 68 H -1.571703 -4.516447 0.029923 0
M  V30 69 H 0.745071 -4.439187 -0.715047 0
M  V30 70 H -0.213287 -7.321370 -0.819611 0
M  V30 71 H 1.312111 -5.701206 -2.647151 0
M  V30 72 H -1.072514 -4.695539 -1.862797 0
M  V30 73 H -1.850659 -6.826020 -3.788853 0
M  V30 74 H -0.257131 -5.862683 -3.940551 0
M  V30 75 H -1.781006 -4.982405 -3.895959 0
M  V30 76 H -3.004713 -5.223373 -1.605765 0
M  V30 77 H -3.102846 -8.060818 -0.307189 0
M  V30 78 H -5.210327 -7.435945 0.333890 0
M  V30 79 H -3.948263 -5.197065 -0.303926 0
M  V30 80 H -4.931967 -3.756482 -0.816596 0
M  V30 81 H -7.021951 -3.879159 0.202711 0
M  V30 82 H -6.500972 -1.143835 -0.600965 0
M  V30 83 H -4.004177 -2.543063 -0.433206 0
M  V30 84 H -2.165640 -1.880651 -1.087573 0
M  V30 85 H -3.674025 0.595345 -1.455131 0
M  V30 86 H -1.707970 1.205594 -1.987314 0
M  V30 87 H 0.159185 -1.225812 -1.526472 0
M  V30 88 H 1.961746 0.136626 -2.264517 0
M  V30 89 H -0.205229 1.929538 -2.441106 0
M  V30 90 H 0.000249 3.837726 -2.747097 0
M  V30 91 H -1.203798 2.651032 -3.738760 0
M  V30 92 H -2.600689 0.921524 -6.132729 0
M  V30 93 H -2.792805 3.246520 -7.889141 0
M  V30 94 H -2.831400 1.463593 -8.197009 0
M  V30 95 H -1.252184 2.282333 -8.092585 0
M  V30 96 H -4.046657 3.338503 -6.421389 0
M  V30 97 H -3.901390 0.895264 -5.164515 0
M  V30 98 H -2.851714 2.951767 -3.637945 0
M  V30 99 H -3.891620 5.004042 -3.159741 0
M  V30 100 H -4.998145 4.066566 -4.045180 0
M  V30 101 H -1.566024 5.049040 -3.996924 0
M  V30 102 H -2.052540 5.889164 -5.899240 0
M  V30 103 H 2.141608 4.989990 -3.621089 0
M  V30 104 H 2.968245 3.440477 -3.575799 0
M  V30 105 H 3.326307 3.551423 -1.329366 0
M  V30 106 H 3.375913 3.319670 1.097553 0
M  V30 107 H 0.972646 2.845832 1.112754 0
M  V30 108 H 1.897570 3.807225 2.426345 0
M  V30 109 H 0.059021 5.532097 2.196194 0
M  V30 110 H -0.890170 3.585542 0.349889 0
M  V30 111 H -1.625537 4.351741 3.473177 0
M  V30 112 H 0.013052 4.079255 4.101207 0
M  V30 113 H -1.458536 2.029461 2.312920 0
M  V30 114 H 0.964316 2.344440 3.895522 0
M  V30 115 H -2.451924 2.112307 4.680763 0
M  V30 116 H -1.248758 3.579330 5.685616 0
M  V30 117 H -1.279716 -0.222021 4.301379 0
M  V30 118 H -1.652386 0.318274 5.948027 0
M  V30 119 H 1.006442 0.183253 4.488459 0
M  V30 120 H 0.751322 1.181173 6.041412 0
M  V30 121 H 1.642879 -0.909599 6.566643 0
M  V30 122 H -0.892453 -1.732253 7.287042 0
M  V30 123 H -0.640654 -2.264438 4.962850 0
M  V30 124 H 0.508673 -3.053626 6.098303 0
M  V30 125 H 1.428528 -1.566347 3.599559 0
M  V30 126 H 3.246093 -1.697131 4.913343 0
M  V30 127 H 0.012206 -3.781183 3.498291 0
M  V30 128 H 1.255443 -4.494181 4.531230 0
M  V30 129 H 2.424672 -5.805161 0.231038 0
M  V30 130 H 0.153942 -7.601829 1.227715 0
M  V30 131 H 1.750476 -8.030672 0.460060 0
M  V30 132 H 1.638158 -7.487744 2.161159 0
M  V30 133 H 2.666066 6.296631 1.554018 0
M  V30 134 H 1.086817 6.594026 0.798773 0
M  V30 135 H 3.730458 7.125140 -0.130750 0
M  V30 136 H 1.895321 7.683382 -2.048776 0
M  V30 137 H 3.041286 6.176073 -2.604853 0
M  V30 138 H 6.304665 6.857490 -1.972231 0
M  V30 END ATOM
M  V30 BEGIN BOND
M  V30 1 1 1 2
M  V30 2 1 2 3
M  V30 3 1 3 4
M  V30 4 1 3 5
M  V30 5 1 5 6
M  V30 6 1 5 7
M  V30 7 2 7 8
M  V30 8 1 8 9
M  V30 9 2 9 10
M  V30 10 1 10 11
M  V30 11 2 11 12
M  V30 12 1 12 13
M  V30 13 2 13 14
M  V30 14 1 14 15
M  V30 15 2 15 16
M  V30 16 1 16 17
M  V30 17 2 17 18
M  V30 18 1 18 19
M  V30 19 2 19 20
M  V30 20 1 20 21
M  V30 21 1 21 22
M  V30 22 1 22 23
M  V30 23 1 23 24
M  V30 24 1 24 25
M  V30 25 1 25 26
M  V30 26 1 25 27
M  V30 27 1 27 28
M  V30 28 1 27 29
M  V30 29 1 29 30
M  V30 30 1 29 31
M  V30 31 1 31 32
M  V30 32 1 21 33
M  V30 33 1 33 34
M  V30 34 1 34 35
M  V30 35 1 35 36
M  V30 36 1 36 37 CFG=3
M  V30 37 1 36 38
M  V30 38 1 38 39
M  V30 39 1 39 40
M  V30 40 1 39 41
M  V30 41 1 41 42
M  V30 42 1 42 43
M  V30 43 1 42 44
M  V30 44 1 44 45
M  V30 45 1 44 46
M  V30 46 1 46 47
M  V30 47 1 47 48
M  V30 48 1 48 49
M  V30 49 1 48 50
M  V30 50 1 50 51
M  V30 51 1 51 52
M  V30 52 1 51 53
M  V30 53 1 53 54
M  V30 54 2 54 55
M  V30 55 1 54 56
M  V30 56 1 56 57
M  V30 57 1 57 58
M  V30 58 1 36 59
M  V30 59 1 59 60
M  V30 60 1 60 61
M  V30 61 1 60 62
M  V30 62 1 62 63
M  V30 63 2 63 64
M  V30 64 1 63 65
M  V30 65 1 57 2
M  V30 66 1 31 23
M  V30 67 1 62 34
M  V30 68 1 1 66
M  V30 69 1 1 67
M  V30 70 1 1 68
M  V30 71 1 2 69 CFG=3
M  V30 72 1 3 70 CFG=1
M  V30 73 1 4 71
M  V30 74 1 5 72 CFG=1
M  V30 75 1 6 73
M  V30 76 1 6 74
M  V30 77 1 6 75
M  V30 78 1 7 76
M  V30 79 1 8 77
M  V30 80 1 9 78
M  V30 81 1 10 79
M  V30 82 1 11 80
M  V30 83 1 12 81
M  V30 84 1 13 82
M  V30 85 1 14 83
M  V30 86 1 15 84
M  V30 87 1 16 85
M  V30 88 1 17 86
M  V30 89 1 18 87
M  V30 90 1 19 88
M  V30 91 1 20 89
M  V30 92 1 21 90 CFG=1
M  V30 93 1 23 91 CFG=1
M  V30 94 1 25 92 CFG=3
M  V30 95 1 26 93
M  V30 96 1 26 94
M  V30 97 1 26 95
M  V30 98 1 27 96 CFG=3
M  V30 99 1 28 97
M  V30 100 1 29 98 CFG=1
M  V30 101 1 30 99
M  V30 102 1 30 100
M  V30 103 1 31 101 CFG=1
M  V30 104 1 32 102
M  V30 105 1 33 103
M  V30 106 1 33 104
M  V30 107 1 34 105 CFG=1
M  V30 108 1 37 106
M  V30 109 1 38 107
M  V30 110 1 38 108
M  V30 111 1 39 109 CFG=1
M  V30 112 1 40 110
M  V30 113 1 41 111
M  V30 114 1 41 112
M  V30 115 1 42 113 CFG=3
M  V30 116 1 43 114
M  V30 117 1 44 115 CFG=3
M  V30 118 1 45 116
M  V30 119 1 46 117
M  V30 120 1 46 118
M  V30 121 1 47 119
M  V30 122 1 47 120
M  V30 123 1 48 121 CFG=1
M  V30 124 1 49 122
M  V30 125 1 50 123
M  V30 126 1 50 124
M  V30 127 1 51 125 CFG=3
M  V30 128 1 52 126
M  V30 129 1 53 127
M  V30 130 1 53 128
M  V30 131 1 57 129 CFG=3
M  V30 132 1 58 130
M  V30 133 1 58 131
M  V30 134 1 58 132
M  V30 135 1 59 133
M  V30 136 1 59 134
M  V30 137 1 60 135 CFG=1
M  V30 138 1 61 136
M  V30 139 1 62 137 CFG=3
M  V30 140 1 65 138
M  V30 END BOND
M  V30 END CTAB
M  END
>  <Dataset>  (48) 
OralDrugs

>  <Ligand_Instance>  (48) 
nan

>  <PDB_ID>  (48) 
nan

>  <Standardized_SMILES>  (48) 
C[C@@H]1[C@H](O)[C@@H](C)/C=C/C=C/C=C/C=C/C=C/C=C/C=C/[C@H](O[C@@H]2O[C@H](C)[C@@H](O)[C@H](N)[C@@H]2O)C[C@@H]2O[C@](O)(C[C@@H](O)C[C@@H](O)[C@H](O)CC[C@@H](O)C[C@@H](O)CC(=O)O[C@H]1C)C[C@H](O)[C@H]2C(=O)O

>  <Name>  (48) 
Amphotericin B

>  <Pocket>  (48) 
nan

>  <ATP_Site>  (48) 
nan

>  <Peripheral>  (48) 
nan

>  <Num_H_Atoms_ProtBoundConf>  (48) 
nan

>  <Num_Resolved_Atoms>  (48) 
nan

>  <Num_Not_Resolved_Atoms>  (48) 
nan

$$$$
CHEMBL174
     RDKit          3D

  0  0  0  0  0  0  0  0  0  0999 V3000
M  V30 BEGIN CTAB
M  V30 COUNTS 43 45 0 0 0
M  V30 BEGIN ATOM
M  V30 1 C -2.485226 -1.280207 1.956701 0
M  V30 2 C -1.341849 -2.229078 1.811823 0
M  V30 3 C -1.094807 -2.965219 3.127149 0
M  V30 4 S 0.228369 -1.374500 1.446956 0
M  V30 5 C 0.629292 -2.372697 -0.021629 0 CFG=2
M  V30 6 C 0.942175 -1.578048 -1.252263 0 CFG=2
M  V30 7 N 0.970733 -0.164097 -0.948822 0
M  V30 8 C 2.126661 0.601865 -1.260662 0
M  V30 9 O 3.135219 0.042759 -1.806515 0
M  V30 10 C 2.068848 2.046003 -0.914412 0 CFG=2
M  V30 11 N 3.306583 2.730411 -1.278592 0
M  V30 12 C 1.825326 2.300843 0.518289 0
M  V30 13 C 0.537091 2.652026 0.912892 0
M  V30 14 C 0.227285 2.904581 2.219199 0
M  V30 15 C 1.243459 2.799111 3.144194 0
M  V30 16 C 2.513444 2.452734 2.753977 0
M  V30 17 C 2.848746 2.192642 1.435624 0
M  V30 18 C -0.318923 -2.130831 -1.741808 0
M  V30 19 O -0.960015 -2.224698 -2.842890 0
M  V30 20 N -0.731591 -2.628419 -0.459813 0
M  V30 21 C -1.472250 -3.168775 0.653021 0 CFG=1
M  V30 22 C -0.928467 -4.530251 0.928436 0
M  V30 23 O -0.008313 -5.231851 0.398849 0
M  V30 24 O -1.469039 -5.296796 1.972021 0
M  V30 25 H -2.613897 -1.030795 3.029869 0
M  V30 26 H -2.348028 -0.328666 1.410475 0
M  V30 27 H -3.437494 -1.761267 1.649374 0
M  V30 28 H -0.158576 -3.559194 3.003401 0
M  V30 29 H -0.823980 -2.162288 3.861562 0
M  V30 30 H -1.963628 -3.533634 3.453890 0
M  V30 31 H 1.261087 -3.254692 0.163153 0
M  V30 32 H 1.874910 -1.963714 -1.727739 0
M  V30 33 H 0.094992 0.177315 -0.506996 0
M  V30 34 H 1.248933 2.504543 -1.538284 0
M  V30 35 H 4.083705 2.165751 -0.867632 0
M  V30 36 H 3.401544 2.708848 -2.309522 0
M  V30 37 H -0.242599 2.725332 0.148316 0
M  V30 38 H -0.800734 3.171871 2.440682 0
M  V30 39 H 0.956121 3.008432 4.176174 0
M  V30 40 H 3.246066 2.394604 3.549869 0
M  V30 41 H 3.848814 1.924831 1.163986 0
M  V30 42 H -2.528809 -3.288333 0.413898 0
M  V30 43 H -0.916213 -5.825834 2.622591 0
M  V30 END ATOM
M  V30 BEGIN BOND
M  V30 1 1 1 2
M  V30 2 1 2 3
M  V30 3 1 2 4
M  V30 4 1 4 5
M  V30 5 1 5 6
M  V30 6 1 6 7
M  V30 7 1 7 8
M  V30 8 2 8 9
M  V30 9 1 8 10
M  V30 10 1 10 11
M  V30 11 1 10 12
M  V30 12 2 12 13
M  V30 13 1 13 14
M  V30 14 2 14 15
M  V30 15 1 15 16
M  V30 16 2 16 17
M  V30 17 1 6 18
M  V30 18 2 18 19
M  V30 19 1 18 20
M  V30 20 1 20 21
M  V30 21 1 21 22
M  V30 22 2 22 23
M  V30 23 1 22 24
M  V30 24 1 21 2
M  V30 25 1 20 5
M  V30 26 1 17 12
M  V30 27 1 1 25
M  V30 28 1 1 26
M  V30 29 1 1 27
M  V30 30 1 3 28
M  V30 31 1 3 29
M  V30 32 1 3 30
M  V30 33 1 5 31 CFG=1
M  V30 34 1 6 32 CFG=3
M  V30 35 1 7 33
M  V30 36 1 10 34 CFG=3
M  V30 37 1 11 35
M  V30 38 1 11 36
M  V30 39 1 13 37
M  V30 40 1 14 38
M  V30 41 1 15 39
M  V30 42 1 16 40
M  V30 43 1 17 41
M  V30 44 1 21 42 CFG=3
M  V30 45 1 24 43
M  V30 END BOND
M  V30 END CTAB
M  END
>  <Dataset>  (49) 
OralDrugs

>  <Ligand_Instance>  (49) 
nan

>  <PDB_ID>  (49) 
nan

>  <Standardized_SMILES>  (49) 
CC1(C)S[C@@H]2[C@H](NC(=O)[C@H](N)c3ccccc3)C(=O)N2[C@H]1C(=O)O

>  <Name>  (49) 
Ampicillin

>  <Pocket>  (49) 
nan

>  <ATP_Site>  (49) 
nan

>  <Peripheral>  (49) 
nan

>  <Num_H_Atoms_ProtBoundConf>  (49) 
nan

>  <Num_Resolved_Atoms>  (49) 
nan

>  <Num_Not_Resolved_Atoms>  (49) 
nan

$$$$
CHEMBL116
     RDKit          3D

  0  0  0  0  0  0  0  0  0  0999 V3000
M  V30 BEGIN CTAB
M  V30 COUNTS 70 72 0 0 0
M  V30 BEGIN ATOM
M  V30 1 C 4.566962 -2.453707 3.120963 0
M  V30 2 C 4.185783 -2.100442 1.673163 0
M  V30 3 C 4.212470 -3.453018 0.957762 0
M  V30 4 C 2.814154 -1.568592 1.727461 0
M  V30 5 N 2.179315 -1.151480 0.537177 0
M  V30 6 C 0.802781 -1.546991 0.425546 0
M  V30 7 C 0.460630 -2.146665 -0.896537 0 CFG=1
M  V30 8 O 1.271594 -3.292678 -1.061884 0
M  V30 9 C -0.994387 -2.483192 -1.040103 0 CFG=2
M  V30 10 C -1.297981 -3.167988 -2.345930 0
M  V30 11 C -0.966884 -2.384568 -3.540310 0
M  V30 12 C -1.943897 -1.542699 -4.073624 0
M  V30 13 C -1.657270 -0.782604 -5.213337 0
M  V30 14 C -0.420375 -0.850432 -5.822597 0
M  V30 15 C 0.553435 -1.675549 -5.309025 0
M  V30 16 C 0.259954 -2.420974 -4.184358 0
M  V30 17 N -1.848659 -1.322845 -0.874217 0
M  V30 18 C -2.810201 -1.245908 0.172895 0
M  V30 19 O -2.952168 -2.184356 0.991967 0
M  V30 20 O -3.674940 -0.197369 0.429662 0
M  V30 21 C -4.586828 -0.229440 1.496498 0 CFG=1
M  V30 22 C -4.356052 0.921118 2.470063 0
M  V30 23 C -5.680207 0.811640 3.231883 0
M  V30 24 O -6.621601 0.400367 2.323780 0
M  V30 25 C -6.007753 0.047521 1.133952 0
M  V30 26 S 2.368310 0.451248 0.055471 0
M  V30 27 O 1.599528 0.648338 -1.223429 0
M  V30 28 O 3.768449 0.856584 -0.257401 0
M  V30 29 C 1.740544 1.621754 1.193981 0
M  V30 30 C 2.477958 2.175172 2.213589 0
M  V30 31 C 1.924963 3.106830 3.095373 0
M  V30 32 C 0.605318 3.502366 2.965044 0
M  V30 33 N 0.008440 4.448168 3.843549 0
M  V30 34 C -0.165940 2.967684 1.952664 0
M  V30 35 C 0.423828 2.042822 1.096288 0
M  V30 36 H 5.623415 -2.825993 3.064743 0
M  V30 37 H 3.961560 -3.321950 3.439083 0
M  V30 38 H 4.482135 -1.590920 3.781882 0
M  V30 39 H 4.983460 -1.441695 1.341038 0
M  V30 40 H 5.242806 -3.892118 1.002240 0
M  V30 41 H 3.562181 -4.184129 1.480977 0
M  V30 42 H 3.837297 -3.389458 -0.083644 0
M  V30 43 H 2.170390 -2.340580 2.207570 0
M  V30 44 H 2.798403 -0.699330 2.435798 0
M  V30 45 H 0.606629 -2.243178 1.266443 0
M  V30 46 H 0.127590 -0.684086 0.597219 0
M  V30 47 H 0.717842 -1.450820 -1.704581 0
M  V30 48 H 1.363561 -3.677968 -0.174003 0
M  V30 49 H -1.259125 -3.202102 -0.237650 0
M  V30 50 H -2.355845 -3.490364 -2.408293 0
M  V30 51 H -0.720034 -4.137709 -2.309823 0
M  V30 52 H -2.931798 -1.414850 -3.681778 0
M  V30 53 H -2.353395 -0.105872 -5.692385 0
M  V30 54 H -0.131097 -0.293298 -6.702648 0
M  V30 55 H 1.548677 -1.756025 -5.765765 0
M  V30 56 H 1.034202 -3.064867 -3.791733 0
M  V30 57 H -1.804183 -0.492407 -1.506558 0
M  V30 58 H -4.532647 -1.166113 2.088362 0
M  V30 59 H -4.387380 1.860371 1.915858 0
M  V30 60 H -3.498058 0.774029 3.125325 0
M  V30 61 H -5.544993 -0.053042 3.945941 0
M  V30 62 H -5.923596 1.702913 3.808199 0
M  V30 63 H -6.551171 -0.802218 0.707066 0
M  V30 64 H -6.083663 0.939087 0.470875 0
M  V30 65 H 3.497111 1.873223 2.318630 0
M  V30 66 H 2.500393 3.535589 3.887104 0
M  V30 67 H -0.834157 4.983145 3.544096 0
M  V30 68 H 0.349425 4.667166 4.802275 0
M  V30 69 H -1.187686 3.278668 1.857806 0
M  V30 70 H -0.265751 1.672464 0.322856 0
M  V30 END ATOM
M  V30 BEGIN BOND
M  V30 1 1 1 2
M  V30 2 1 2 3
M  V30 3 1 2 4
M  V30 4 1 4 5
M  V30 5 1 5 6
M  V30 6 1 6 7
M  V30 7 1 7 8
M  V30 8 1 7 9
M  V30 9 1 9 10
M  V30 10 1 10 11
M  V30 11 2 11 12
M  V30 12 1 12 13
M  V30 13 2 13 14
M  V30 14 1 14 15
M  V30 15 2 15 16
M  V30 16 1 9 17
M  V30 17 1 17 18
M  V30 18 2 18 19
M  V30 19 1 18 20
M  V30 20 1 20 21
M  V30 21 1 21 22
M  V30 22 1 22 23
M  V30 23 1 23 24
M  V30 24 1 24 25
M  V30 25 1 5 26
M  V30 26 2 26 27
M  V30 27 2 26 28
M  V30 28 1 26 29
M  V30 29 2 29 30
M  V30 30 1 30 31
M  V30 31 2 31 32
M  V30 32 1 32 33
M  V30 33 1 32 34
M  V30 34 2 34 35
M  V30 35 1 16 11
M  V30 36 1 25 21
M  V30 37 1 35 29
M  V30 38 1 1 36
M  V30 39 1 1 37
M  V30 40 1 1 38
M  V30 41 1 2 39
M  V30 42 1 3 40
M  V30 43 1 3 41
M  V30 44 1 3 42
M  V30 45 1 4 43
M  V30 46 1 4 44
M  V30 47 1 6 45
M  V30 48 1 6 46
M  V30 49 1 7 47 CFG=3
M  V30 50 1 8 48
M  V30 51 1 9 49 CFG=1
M  V30 52 1 10 50
M  V30 53 1 10 51
M  V30 54 1 12 52
M  V30 55 1 13 53
M  V30 56 1 14 54
M  V30 57 1 15 55
M  V30 58 1 16 56
M  V30 59 1 17 57
M  V30 60 1 21 58 CFG=1
M  V30 61 1 22 59
M  V30 62 1 22 60
M  V30 63 1 23 61
M  V30 64 1 23 62
M  V30 65 1 25 63
M  V30 66 1 25 64
M  V30 67 1 30 65
M  V30 68 1 31 66
M  V30 69 1 33 67
M  V30 70 1 33 68
M  V30 71 1 34 69
M  V30 72 1 35 70
M  V30 END BOND
M  V30 END CTAB
M  END
>  <Dataset>  (50) 
OralDrugs

>  <Ligand_Instance>  (50) 
nan

>  <PDB_ID>  (50) 
nan

>  <Standardized_SMILES>  (50) 
CC(C)CN(C[C@@H](O)[C@H](Cc1ccccc1)NC(=O)O[C@H]1CCOC1)S(=O)(=O)c1ccc(N)cc1

>  <Name>  (50) 
Amprenavir

>  <Pocket>  (50) 
nan

>  <ATP_Site>  (50) 
nan

>  <Peripheral>  (50) 
nan

>  <Num_H_Atoms_ProtBoundConf>  (50) 
nan

>  <Num_Resolved_Atoms>  (50) 
nan

>  <Num_Not_Resolved_Atoms>  (50) 
nan

$$$$
CHEMBL1929396
     RDKit          3D

  0  0  0  0  0  0  0  0  0  0999 V3000
M  V30 BEGIN CTAB
M  V30 COUNTS 53 55 0 0 0
M  V30 BEGIN ATOM
M  V30 1 C 3.079543 -6.776389 3.386231 0
M  V30 2 C 3.081513 -5.527404 2.579068 0
M  V30 3 C 3.867346 -5.429175 1.437251 0
M  V30 4 C 3.698222 -4.181582 0.865796 0
M  V30 5 N 4.188159 -3.541224 -0.219108 0
M  V30 6 C 3.801513 -2.264583 -0.510739 0
M  V30 7 C 2.899817 -1.618828 0.310896 0
M  V30 8 C 2.525018 -0.256618 -0.052170 0
M  V30 9 O 3.037275 0.238943 -1.074434 0
M  V30 10 N 1.613656 0.534159 0.689258 0
M  V30 11 C 1.238025 1.876030 0.340383 0
M  V30 12 C 0.237854 2.473459 1.328236 0
M  V30 13 C -0.071904 3.857506 0.861840 0
M  V30 14 C 0.899690 2.555844 2.686028 0
M  V30 15 N -0.924076 1.625699 1.476291 0
M  V30 16 C -1.646683 1.415490 0.239769 0
M  V30 17 C -2.804883 0.534718 0.536952 0
M  V30 18 O -2.838187 0.219425 1.760537 0
M  V30 19 N -3.659581 0.202932 -0.577028 0
M  V30 20 C -3.669758 0.537487 -2.008592 0
M  V30 21 C -3.873036 -0.846960 -2.609238 0
M  V30 22 C -4.480018 -1.704860 -1.512105 0
M  V30 23 C -4.843924 -0.653019 -0.460738 0 CFG=1
M  V30 24 C -4.930301 -1.235468 0.876507 0
M  V30 25 N -4.986953 -1.701567 1.915130 0
M  V30 26 C 2.400792 -2.273433 1.417455 0
M  V30 27 N 2.805735 -3.549390 1.683532 0
M  V30 28 N 2.455723 -4.349261 2.679117 0
M  V30 29 H 4.104940 -7.046881 3.707910 0
M  V30 30 H 2.412040 -6.583323 4.260761 0
M  V30 31 H 2.589264 -7.571423 2.783280 0
M  V30 32 H 4.528998 -6.156096 0.997344 0
M  V30 33 H 4.233716 -1.808752 -1.397551 0
M  V30 34 H 1.177994 0.132638 1.545847 0
M  V30 35 H 0.849023 1.983010 -0.701352 0
M  V30 36 H 2.122286 2.550157 0.391926 0
M  V30 37 H 0.606170 4.571394 1.376659 0
M  V30 38 H -1.100684 4.195233 1.097835 0
M  V30 39 H 0.168661 3.973240 -0.223688 0
M  V30 40 H 0.442154 3.331579 3.323993 0
M  V30 41 H 0.790471 1.584755 3.246507 0
M  V30 42 H 1.983296 2.685241 2.535865 0
M  V30 43 H -1.493240 1.981842 2.251400 0
M  V30 44 H -2.086579 2.365580 -0.164638 0
M  V30 45 H -0.949725 0.989600 -0.496613 0
M  V30 46 H -4.537402 1.205613 -2.193451 0
M  V30 47 H -2.708770 0.997598 -2.313549 0
M  V30 48 H -2.916182 -1.267920 -2.972212 0
M  V30 49 H -4.596285 -0.730161 -3.422309 0
M  V30 50 H -5.370472 -2.261366 -1.829248 0
M  V30 51 H -3.697460 -2.357370 -1.039214 0
M  V30 52 H -5.763618 -0.167816 -0.804800 0
M  V30 53 H 1.696893 -1.772285 2.060777 0
M  V30 END ATOM
M  V30 BEGIN BOND
M  V30 1 1 1 2
M  V30 2 1 2 3
M  V30 3 2 3 4
M  V30 4 1 4 5
M  V30 5 2 5 6
M  V30 6 1 6 7
M  V30 7 1 7 8
M  V30 8 2 8 9
M  V30 9 1 8 10
M  V30 10 1 10 11
M  V30 11 1 11 12
M  V30 12 1 12 13
M  V30 13 1 12 14
M  V30 14 1 12 15
M  V30 15 1 15 16
M  V30 16 1 16 17
M  V30 17 2 17 18
M  V30 18 1 17 19
M  V30 19 1 19 20
M  V30 20 1 20 21
M  V30 21 1 21 22
M  V30 22 1 22 23
M  V30 23 1 23 24
M  V30 24 3 24 25
M  V30 25 2 7 26
M  V30 26 1 26 27
M  V30 27 1 27 28
M  V30 28 2 28 2
M  V30 29 1 27 4
M  V30 30 1 23 19
M  V30 31 1 1 29
M  V30 32 1 1 30
M  V30 33 1 1 31
M  V30 34 1 3 32
M  V30 35 1 6 33
M  V30 36 1 10 34
M  V30 37 1 11 35
M  V30 38 1 11 36
M  V30 39 1 13 37
M  V30 40 1 13 38
M  V30 41 1 13 39
M  V30 42 1 14 40
M  V30 43 1 14 41
M  V30 44 1 14 42
M  V30 45 1 15 43
M  V30 46 1 16 44
M  V30 47 1 16 45
M  V30 48 1 20 46
M  V30 49 1 20 47
M  V30 50 1 21 48
M  V30 51 1 21 49
M  V30 52 1 22 50
M  V30 53 1 22 51
M  V30 54 1 23 52 CFG=3
M  V30 55 1 26 53
M  V30 END BOND
M  V30 END CTAB
M  END
>  <Dataset>  (51) 
OralDrugs

>  <Ligand_Instance>  (51) 
nan

>  <PDB_ID>  (51) 
nan

>  <Standardized_SMILES>  (51) 
Cc1cc2ncc(C(=O)NCC(C)(C)NCC(=O)N3CCC[C@H]3C#N)cn2n1

>  <Name>  (51) 
Anagliptin

>  <Pocket>  (51) 
nan

>  <ATP_Site>  (51) 
nan

>  <Peripheral>  (51) 
nan

>  <Num_H_Atoms_ProtBoundConf>  (51) 
nan

>  <Num_Resolved_Atoms>  (51) 
nan

>  <Num_Not_Resolved_Atoms>  (51) 
nan

$$$$
CHEMBL760
     RDKit          3D

  0  0  0  0  0  0  0  0  0  0999 V3000
M  V30 BEGIN CTAB
M  V30 COUNTS 23 25 0 0 0
M  V30 BEGIN ATOM
M  V30 1 O 1.469265 -4.222164 2.877858 0
M  V30 2 C 1.146268 -3.143340 2.301517 0
M  V30 3 C 0.073351 -2.834774 1.322467 0
M  V30 4 N 0.277928 -1.414174 1.086520 0
M  V30 5 C -0.532203 -0.628935 0.189402 0
M  V30 6 C -0.099256 0.790802 0.143299 0
M  V30 7 C 0.967488 1.209962 0.909409 0
M  V30 8 C 1.354439 2.541124 0.850431 0
M  V30 9 C 0.641733 3.400482 0.013051 0
M  V30 10 C -0.429794 2.972537 -0.754529 0
M  V30 11 Cl -1.269096 4.135254 -1.783708 0
M  V30 12 C -0.802928 1.634630 -0.682148 0
M  V30 13 Cl -2.169465 1.089192 -1.661093 0
M  V30 14 N 1.694657 0.354126 1.757795 0
M  V30 15 C 1.361613 -0.890001 1.836684 0
M  V30 16 N 1.913379 -1.975665 2.604985 0
M  V30 17 H -0.904525 -2.908726 1.847944 0
M  V30 18 H 0.123075 -3.445312 0.406552 0
M  V30 19 H -0.553193 -1.075877 -0.843359 0
M  V30 20 H -1.587295 -0.706803 0.580399 0
M  V30 21 H 2.183532 2.978671 1.413908 0
M  V30 22 H 0.927711 4.454055 -0.050435 0
M  V30 23 H 2.727960 -1.838224 3.242164 0
M  V30 END ATOM
M  V30 BEGIN BOND
M  V30 1 2 1 2
M  V30 2 1 2 3
M  V30 3 1 3 4
M  V30 4 1 4 5
M  V30 5 1 5 6
M  V30 6 2 6 7
M  V30 7 1 7 8
M  V30 8 2 8 9
M  V30 9 1 9 10
M  V30 10 1 10 11
M  V30 11 2 10 12
M  V30 12 1 12 13
M  V30 13 1 7 14
M  V30 14 2 14 15
M  V30 15 1 15 16
M  V30 16 1 16 2
M  V30 17 1 15 4
M  V30 18 1 12 6
M  V30 19 1 3 17
M  V30 20 1 3 18
M  V30 21 1 5 19
M  V30 22 1 5 20
M  V30 23 1 8 21
M  V30 24 1 9 22
M  V30 25 1 16 23
M  V30 END BOND
M  V30 END CTAB
M  END
>  <Dataset>  (52) 
OralDrugs

>  <Ligand_Instance>  (52) 
nan

>  <PDB_ID>  (52) 
nan

>  <Standardized_SMILES>  (52) 
O=C1CN2Cc3c(ccc(Cl)c3Cl)N=C2N1

>  <Name>  (52) 
Anagrelide

>  <Pocket>  (52) 
nan

>  <ATP_Site>  (52) 
nan

>  <Peripheral>  (52) 
nan

>  <Num_H_Atoms_ProtBoundConf>  (52) 
nan

>  <Num_Resolved_Atoms>  (52) 
nan

>  <Num_Not_Resolved_Atoms>  (52) 
nan

$$$$
CHEMBL1399
     RDKit          3D

  0  0  0  0  0  0  0  0  0  0999 V3000
M  V30 BEGIN CTAB
M  V30 COUNTS 41 42 0 0 0
M  V30 BEGIN ATOM
M  V30 1 C 1.827645 -3.726815 1.138281 0
M  V30 2 C 2.367991 -2.365499 1.589140 0
M  V30 3 C 2.781221 -2.429466 3.041047 0
M  V30 4 C 3.510497 -1.997739 0.753110 0
M  V30 5 N 4.426303 -1.719891 0.100675 0
M  V30 6 C 1.273721 -1.382090 1.391965 0
M  V30 7 C 1.361321 -0.044331 1.677368 0
M  V30 8 C 0.390665 0.913859 1.518064 0
M  V30 9 C 0.582360 2.348466 1.860248 0
M  V30 10 N 1.117348 3.076250 0.707564 0
M  V30 11 C 0.463852 3.714163 -0.298627 0
M  V30 12 N 1.339070 4.250981 -1.150794 0
M  V30 13 C 2.568774 3.963021 -0.700199 0
M  V30 14 N 2.399439 3.244071 0.437344 0
M  V30 15 C -0.799923 0.438614 1.008551 0
M  V30 16 C -1.035861 -0.889247 0.672783 0
M  V30 17 C -2.329895 -1.377128 0.125000 0
M  V30 18 C -2.223641 -1.261650 -1.389862 0
M  V30 19 C -2.624347 -2.797842 0.493184 0
M  V30 20 C -3.363076 -0.477747 0.640759 0
M  V30 21 N -4.170435 0.236361 1.066045 0
M  V30 22 C 0.021684 -1.747304 0.881751 0
M  V30 23 H 2.640959 -4.476750 1.320249 0
M  V30 24 H 0.977036 -4.013736 1.778274 0
M  V30 25 H 1.563238 -3.717242 0.072917 0
M  V30 26 H 1.934449 -2.240577 3.723802 0
M  V30 27 H 3.599726 -1.688137 3.159847 0
M  V30 28 H 3.195550 -3.443392 3.228752 0
M  V30 29 H 2.322173 0.303531 2.081719 0
M  V30 30 H -0.374752 2.836345 2.133695 0
M  V30 31 H 1.330480 2.465947 2.669893 0
M  V30 32 H -0.630356 3.691918 -0.258812 0
M  V30 33 H 3.614339 4.108601 -0.934247 0
M  V30 34 H -1.610208 1.149639 0.858773 0
M  V30 35 H -1.615267 -0.358810 -1.604173 0
M  V30 36 H -3.212364 -1.243568 -1.888535 0
M  V30 37 H -1.610245 -2.135372 -1.710970 0
M  V30 38 H -3.699080 -2.841408 0.817079 0
M  V30 39 H -2.035911 -3.203730 1.316888 0
M  V30 40 H -2.555534 -3.471298 -0.391675 0
M  V30 41 H -0.166114 -2.787051 0.618207 0
M  V30 END ATOM
M  V30 BEGIN BOND
M  V30 1 1 1 2
M  V30 2 1 2 3
M  V30 3 1 2 4
M  V30 4 3 4 5
M  V30 5 1 2 6
M  V30 6 2 6 7
M  V30 7 1 7 8
M  V30 8 1 8 9
M  V30 9 1 9 10
M  V30 10 1 10 11
M  V30 11 2 11 12
M  V30 12 1 12 13
M  V30 13 2 13 14
M  V30 14 2 8 15
M  V30 15 1 15 16
M  V30 16 1 16 17
M  V30 17 1 17 18
M  V30 18 1 17 19
M  V30 19 1 17 20
M  V30 20 3 20 21
M  V30 21 2 16 22
M  V30 22 1 22 6
M  V30 23 1 14 10
M  V30 24 1 1 23
M  V30 25 1 1 24
M  V30 26 1 1 25
M  V30 27 1 3 26
M  V30 28 1 3 27
M  V30 29 1 3 28
M  V30 30 1 7 29
M  V30 31 1 9 30
M  V30 32 1 9 31
M  V30 33 1 11 32
M  V30 34 1 13 33
M  V30 35 1 15 34
M  V30 36 1 18 35
M  V30 37 1 18 36
M  V30 38 1 18 37
M  V30 39 1 19 38
M  V30 40 1 19 39
M  V30 41 1 19 40
M  V30 42 1 22 41
M  V30 END BOND
M  V30 END CTAB
M  END
>  <Dataset>  (53) 
OralDrugs

>  <Ligand_Instance>  (53) 
nan

>  <PDB_ID>  (53) 
nan

>  <Standardized_SMILES>  (53) 
CC(C)(C#N)c1cc(Cn2cncn2)cc(C(C)(C)C#N)c1

>  <Name>  (53) 
Anastrozole

>  <Pocket>  (53) 
nan

>  <ATP_Site>  (53) 
nan

>  <Peripheral>  (53) 
nan

>  <Num_H_Atoms_ProtBoundConf>  (53) 
nan

>  <Num_Resolved_Atoms>  (53) 
nan

>  <Num_Not_Resolved_Atoms>  (53) 
nan

$$$$
CHEMBL1201347
     RDKit          3D

  0  0  0  0  0  0  0  0  0  0999 V3000
M  V30 BEGIN CTAB
M  V30 COUNTS 54 56 0 0 0
M  V30 BEGIN ATOM
M  V30 1 C 2.080426 -3.981047 0.567642 0
M  V30 2 C 2.665023 -3.085355 -0.469324 0
M  V30 3 O 2.029625 -1.867603 -0.668196 0
M  V30 4 C 1.846507 -0.879563 0.253071 0
M  V30 5 O 2.444175 -1.605221 1.093676 0
M  V30 6 C 1.211497 0.464436 0.242881 0
M  V30 7 C 1.972201 1.273692 -0.775663 0
M  V30 8 C 2.383123 2.551969 -0.467885 0
M  V30 9 C 3.069344 3.285405 -1.396934 0
M  V30 10 C 3.392791 2.832533 -2.656761 0
M  V30 11 C 2.951301 1.531777 -2.912874 0
M  V30 12 C 2.252485 0.734603 -2.019143 0
M  V30 13 C 1.385950 1.036714 1.623229 0
M  V30 14 C 0.498510 0.178454 2.545851 0
M  V30 15 N -0.859229 0.551843 2.291403 0
M  V30 16 C -1.835073 0.174129 3.224693 0
M  V30 17 C -2.136342 -1.286988 3.338383 0
M  V30 18 C -2.630494 -1.926456 2.119113 0
M  V30 19 C -4.014479 -1.898061 2.006986 0
M  V30 20 C -4.673876 -2.447537 0.931423 0
M  V30 21 C -3.957672 -3.054228 -0.085052 0
M  V30 22 N -4.568413 -3.642983 -1.226401 0
M  V30 23 C -2.571538 -3.086040 0.021289 0
M  V30 24 C -1.918701 -2.532064 1.104280 0
M  V30 25 C -1.196455 0.818425 0.962953 0
M  V30 26 C -0.240230 0.411815 -0.088321 0
M  V30 27 H 2.290451 -5.047182 0.254197 0
M  V30 28 H 2.666931 -3.887821 1.524699 0
M  V30 29 H 1.001288 -3.912433 0.719917 0
M  V30 30 H 2.648358 -3.632702 -1.454866 0
M  V30 31 H 3.739643 -2.940241 -0.232229 0
M  V30 32 H 2.206061 3.043044 0.475881 0
M  V30 33 H 3.407201 4.306925 -1.174781 0
M  V30 34 H 3.923858 3.353287 -3.423536 0
M  V30 35 H 3.177106 1.118662 -3.890758 0
M  V30 36 H 1.956000 -0.258182 -2.322592 0
M  V30 37 H 2.418132 1.096831 1.977905 0
M  V30 38 H 0.921040 2.052799 1.664658 0
M  V30 39 H 0.592594 -0.897283 2.323872 0
M  V30 40 H 0.811237 0.344790 3.585891 0
M  V30 41 H -2.740944 0.797069 3.067862 0
M  V30 42 H -1.461720 0.480791 4.243620 0
M  V30 43 H -2.746238 -1.521950 4.234210 0
M  V30 44 H -1.143810 -1.778813 3.561368 0
M  V30 45 H -4.693751 -1.459868 2.722378 0
M  V30 46 H -5.746892 -2.452924 0.795061 0
M  V30 47 H -4.386689 -3.121958 -2.117283 0
M  V30 48 H -5.155680 -4.480929 -1.355354 0
M  V30 49 H -1.972577 -3.541474 -0.734490 0
M  V30 50 H -0.854321 -2.508027 1.273105 0
M  V30 51 H -2.188401 0.331921 0.745508 0
M  V30 52 H -1.433864 1.919444 0.877790 0
M  V30 53 H -0.410042 1.110843 -0.960809 0
M  V30 54 H -0.514472 -0.590723 -0.532844 0
M  V30 END ATOM
M  V30 BEGIN BOND
M  V30 1 1 1 2
M  V30 2 1 2 3
M  V30 3 1 3 4
M  V30 4 2 4 5
M  V30 5 1 4 6
M  V30 6 1 6 7
M  V30 7 2 7 8
M  V30 8 1 8 9
M  V30 9 2 9 10
M  V30 10 1 10 11
M  V30 11 2 11 12
M  V30 12 1 6 13
M  V30 13 1 13 14
M  V30 14 1 14 15
M  V30 15 1 15 16
M  V30 16 1 16 17
M  V30 17 1 17 18
M  V30 18 2 18 19
M  V30 19 1 19 20
M  V30 20 2 20 21
M  V30 21 1 21 22
M  V30 22 1 21 23
M  V30 23 2 23 24
M  V30 24 1 15 25
M  V30 25 1 25 26
M  V30 26 1 26 6
M  V30 27 1 12 7
M  V30 28 1 24 18
M  V30 29 1 1 27
M  V30 30 1 1 28
M  V30 31 1 1 29
M  V30 32 1 2 30
M  V30 33 1 2 31
M  V30 34 1 8 32
M  V30 35 1 9 33
M  V30 36 1 10 34
M  V30 37 1 11 35
M  V30 38 1 12 36
M  V30 39 1 13 37
M  V30 40 1 13 38
M  V30 41 1 14 39
M  V30 42 1 14 40
M  V30 43 1 16 41
M  V30 44 1 16 42
M  V30 45 1 17 43
M  V30 46 1 17 44
M  V30 47 1 19 45
M  V30 48 1 20 46
M  V30 49 1 22 47
M  V30 50 1 22 48
M  V30 51 1 23 49
M  V30 52 1 24 50
M  V30 53 1 25 51
M  V30 54 1 25 52
M  V30 55 1 26 53
M  V30 56 1 26 54
M  V30 END BOND
M  V30 END CTAB
M  END
>  <Dataset>  (54) 
OralDrugs

>  <Ligand_Instance>  (54) 
nan

>  <PDB_ID>  (54) 
nan

>  <Standardized_SMILES>  (54) 
CCOC(=O)C1(c2ccccc2)CCN(CCc2ccc(N)cc2)CC1

>  <Name>  (54) 
Anileridine

>  <Pocket>  (54) 
nan

>  <ATP_Site>  (54) 
nan

>  <Peripheral>  (54) 
nan

>  <Num_H_Atoms_ProtBoundConf>  (54) 
nan

>  <Num_Resolved_Atoms>  (54) 
nan

>  <Num_Not_Resolved_Atoms>  (54) 
nan

$$$$
CHEMBL712
     RDKit          3D

  0  0  0  0  0  0  0  0  0  0999 V3000
M  V30 BEGIN CTAB
M  V30 COUNTS 31 33 0 0 0
M  V30 BEGIN ATOM
M  V30 1 C -2.398564 -4.867610 3.679402 0
M  V30 2 O -1.636991 -4.756681 2.477154 0
M  V30 3 C -1.183777 -3.490130 2.128194 0
M  V30 4 C -1.425070 -2.349178 2.868135 0
M  V30 5 C -0.952848 -1.111447 2.479532 0
M  V30 6 C -0.217659 -1.056191 1.303136 0
M  V30 7 C 0.291596 0.276940 0.883536 0
M  V30 8 C -0.303450 0.658580 -0.420733 0
M  V30 9 O -1.439187 0.371076 -0.916070 0
M  V30 10 C 0.726373 1.484604 -1.081231 0
M  V30 11 C 0.694886 2.376327 -2.156284 0
M  V30 12 C 1.870786 3.006144 -2.536191 0
M  V30 13 C 3.054551 2.786532 -1.899043 0
M  V30 14 C 3.122488 1.902691 -0.821861 0
M  V30 15 C 1.934804 1.268918 -0.440960 0
M  V30 16 C 1.758193 0.299791 0.660637 0
M  V30 17 O 2.582523 -0.389184 1.315882 0
M  V30 18 C 0.042262 -2.177212 0.539038 0
M  V30 19 C -0.441621 -3.428048 0.942568 0
M  V30 20 H -3.199504 -4.089239 3.625336 0
M  V30 21 H -1.790291 -4.624081 4.567445 0
M  V30 22 H -2.836778 -5.868659 3.805320 0
M  V30 23 H -1.999367 -2.434695 3.774165 0
M  V30 24 H -1.177117 -0.256180 3.104627 0
M  V30 25 H -0.019757 1.036550 1.620692 0
M  V30 26 H -0.242169 2.559668 -2.672000 0
M  V30 27 H 1.879231 3.706442 -3.369961 0
M  V30 28 H 3.995007 3.258207 -2.164628 0
M  V30 29 H 4.049003 1.721875 -0.312507 0
M  V30 30 H 0.627967 -2.065296 -0.377434 0
M  V30 31 H -0.210884 -4.274828 0.309568 0
M  V30 END ATOM
M  V30 BEGIN BOND
M  V30 1 1 1 2
M  V30 2 1 2 3
M  V30 3 2 3 4
M  V30 4 1 4 5
M  V30 5 2 5 6
M  V30 6 1 6 7
M  V30 7 1 7 8
M  V30 8 2 8 9
M  V30 9 1 8 10
M  V30 10 2 10 11
M  V30 11 1 11 12
M  V30 12 2 12 13
M  V30 13 1 13 14
M  V30 14 2 14 15
M  V30 15 1 15 16
M  V30 16 2 16 17
M  V30 17 1 6 18
M  V30 18 2 18 19
M  V30 19 1 19 3
M  V30 20 1 16 7
M  V30 21 1 15 10
M  V30 22 1 1 20
M  V30 23 1 1 21
M  V30 24 1 1 22
M  V30 25 1 4 23
M  V30 26 1 5 24
M  V30 27 1 7 25
M  V30 28 1 11 26
M  V30 29 1 12 27
M  V30 30 1 13 28
M  V30 31 1 14 29
M  V30 32 1 18 30
M  V30 33 1 19 31
M  V30 END BOND
M  V30 END CTAB
M  END
>  <Dataset>  (55) 
OralDrugs

>  <Ligand_Instance>  (55) 
nan

>  <PDB_ID>  (55) 
nan

>  <Standardized_SMILES>  (55) 
COc1ccc(C2C(=O)c3ccccc3C2=O)cc1

>  <Name>  (55) 
Anisindione

>  <Pocket>  (55) 
nan

>  <ATP_Site>  (55) 
nan

>  <Peripheral>  (55) 
nan

>  <Num_H_Atoms_ProtBoundConf>  (55) 
nan

>  <Num_Resolved_Atoms>  (55) 
nan

>  <Num_Not_Resolved_Atoms>  (55) 
nan

$$$$
CHEMBL1186610
     RDKit          3D

  0  0  0  0  0  0  0  0  0  0999 V3000
M  V30 BEGIN CTAB
M  V30 COUNTS 52 53 0 0 0
M  V30 BEGIN ATOM
M  V30 1 C -0.915575 -3.726164 2.574592 0
M  V30 2 C 0.103728 -4.546243 1.848281 0
M  V30 3 C 1.047349 -3.814575 0.970884 0
M  V30 4 C 1.923151 -2.788329 1.633203 0
M  V30 5 C 2.814406 -2.186719 0.557855 0
M  V30 6 C 3.700816 -3.173537 -0.132313 0
M  V30 7 C 4.511710 -2.346628 -1.151037 0
M  V30 8 C 1.109636 -1.648194 2.189312 0
M  V30 9 O 0.851690 -1.123257 3.314275 0
M  V30 10 O 0.464364 -0.997530 1.126161 0
M  V30 11 C -0.373432 0.126710 1.373740 0 CFG=1
M  V30 12 C 0.182302 1.378837 0.752759 0
M  V30 13 C -0.781187 2.229135 0.017486 0 CFG=1
M  V30 14 C -0.882420 1.750861 -1.435346 0
M  V30 15 C -1.895443 0.626655 -1.300490 0
M  V30 16 C -2.462223 0.772226 0.106679 0 CFG=1
M  V30 17 C -1.760011 -0.233699 0.958143 0
M  V30 18 N -2.153100 2.133550 0.425081 0 CHG=1 VAL=4
M  V30 19 C -2.427337 2.521196 1.773212 0
M  V30 20 C -2.911237 3.009003 -0.447304 0
M  V30 21 H -0.579248 -3.413422 3.588365 0
M  V30 22 H -1.847198 -4.339846 2.800002 0
M  V30 23 H -1.262784 -2.916071 1.927198 0
M  V30 24 H 0.622305 -5.275491 2.529204 0
M  V30 25 H -0.491994 -5.230312 1.169940 0
M  V30 26 H 0.441458 -3.329520 0.163883 0
M  V30 27 H 1.720834 -4.549663 0.448623 0
M  V30 28 H 2.552352 -3.266339 2.402572 0
M  V30 29 H 2.116882 -1.771895 -0.227558 0
M  V30 30 H 3.353626 -1.322129 0.946214 0
M  V30 31 H 3.123250 -3.880388 -0.792280 0
M  V30 32 H 4.386736 -3.699872 0.533359 0
M  V30 33 H 3.827798 -1.870217 -1.871384 0
M  V30 34 H 5.061302 -1.517644 -0.640768 0
M  V30 35 H 5.260718 -2.959015 -1.652653 0
M  V30 36 H -0.424733 0.375861 2.475217 0
M  V30 37 H 0.754359 2.009614 1.466235 0
M  V30 38 H 0.955394 1.040779 0.002428 0
M  V30 39 H -0.471683 3.283009 0.067340 0
M  V30 40 H -1.226653 2.592221 -2.036447 0
M  V30 41 H 0.097080 1.331529 -1.732314 0
M  V30 42 H -1.396440 -0.371003 -1.431481 0
M  V30 43 H -2.686870 0.673856 -2.066783 0
M  V30 44 H -3.543273 0.535630 0.135124 0
M  V30 45 H -1.769071 -1.185094 0.346546 0
M  V30 46 H -2.394174 -0.532369 1.844899 0
M  V30 47 H -2.791304 3.568177 1.805404 0
M  V30 48 H -3.295046 1.892176 2.129931 0
M  V30 49 H -1.583976 2.474537 2.472945 0
M  V30 50 H -3.164413 2.543041 -1.401370 0
M  V30 51 H -2.289325 3.906821 -0.656050 0
M  V30 52 H -3.838756 3.343197 0.082176 0
M  V30 END ATOM
M  V30 BEGIN BOND
M  V30 1 1 1 2
M  V30 2 1 2 3
M  V30 3 1 3 4
M  V30 4 1 4 5
M  V30 5 1 5 6
M  V30 6 1 6 7
M  V30 7 1 4 8
M  V30 8 2 8 9
M  V30 9 1 8 10
M  V30 10 1 10 11
M  V30 11 1 11 12
M  V30 12 1 12 13
M  V30 13 1 13 14
M  V30 14 1 14 15
M  V30 15 1 15 16
M  V30 16 1 16 17
M  V30 17 1 16 18
M  V30 18 1 18 19
M  V30 19 1 18 20
M  V30 20 1 17 11
M  V30 21 1 18 13
M  V30 22 1 1 21
M  V30 23 1 1 22
M  V30 24 1 1 23
M  V30 25 1 2 24
M  V30 26 1 2 25
M  V30 27 1 3 26
M  V30 28 1 3 27
M  V30 29 1 4 28
M  V30 30 1 5 29
M  V30 31 1 5 30
M  V30 32 1 6 31
M  V30 33 1 6 32
M  V30 34 1 7 33
M  V30 35 1 7 34
M  V30 36 1 7 35
M  V30 37 1 11 36 CFG=1
M  V30 38 1 12 37
M  V30 39 1 12 38
M  V30 40 1 13 39 CFG=3
M  V30 41 1 14 40
M  V30 42 1 14 41
M  V30 43 1 15 42
M  V30 44 1 15 43
M  V30 45 1 16 44 CFG=3
M  V30 46 1 17 45
M  V30 47 1 17 46
M  V30 48 1 19 47
M  V30 49 1 19 48
M  V30 50 1 19 49
M  V30 51 1 20 50
M  V30 52 1 20 51
M  V30 53 1 20 52
M  V30 END BOND
M  V30 END CTAB
M  END
>  <Dataset>  (56) 
OralDrugs

>  <Ligand_Instance>  (56) 
nan

>  <PDB_ID>  (56) 
nan

>  <Standardized_SMILES>  (56) 
CCCC(CCC)C(=O)O[C@H]1C[C@H]2CC[C@@H](C1)[N+]2(C)C

>  <Name>  (56) 
Anisotropine

>  <Pocket>  (56) 
nan

>  <ATP_Site>  (56) 
nan

>  <Peripheral>  (56) 
nan

>  <Num_H_Atoms_ProtBoundConf>  (56) 
nan

>  <Num_Resolved_Atoms>  (56) 
nan

>  <Num_Not_Resolved_Atoms>  (56) 
nan

$$$$
CHEMBL3183409
     RDKit          3D

  0  0  0  0  0  0  0  0  0  0999 V3000
M  V30 BEGIN CTAB
M  V30 COUNTS 48 51 0 0 0
M  V30 BEGIN ATOM
M  V30 1 C -1.283437 -0.809302 8.554342 0
M  V30 2 N -1.590238 -0.727659 7.147639 0
M  V30 3 C -0.592195 -1.027833 6.181052 0
M  V30 4 O 0.479458 -1.339747 6.808675 0
M  V30 5 C -0.715707 -1.000467 4.732030 0
M  V30 6 C 0.468545 -1.352538 4.071023 0
M  V30 7 C 0.518370 -1.375547 2.693435 0
M  V30 8 C -0.564555 -1.062124 1.895873 0
M  V30 9 N -0.524904 -1.082367 0.474773 0
M  V30 10 C -0.152196 0.108887 -0.240016 0
M  V30 11 S -0.249004 1.684579 0.248098 0
M  V30 12 N 0.350374 -0.301760 -1.527526 0
M  V30 13 C 0.821777 0.605379 -2.527804 0
M  V30 14 C -0.004287 1.153384 -3.495584 0
M  V30 15 N 0.542455 1.999292 -4.393303 0
M  V30 16 C 1.848440 2.341115 -4.400997 0
M  V30 17 C 2.382496 3.247869 -5.380309 0
M  V30 18 N 2.828989 3.993083 -6.169610 0
M  V30 19 C 2.672004 1.787392 -3.426756 0
M  V30 20 C 4.132253 2.153463 -3.414819 0
M  V30 21 F 4.766737 1.805495 -4.584934 0
M  V30 22 F 4.719808 1.571704 -2.315369 0
M  V30 23 F 4.187248 3.530993 -3.227428 0
M  V30 24 C 2.169740 0.902513 -2.464884 0
M  V30 25 C 0.272800 -1.737116 -1.569291 0
M  V30 26 O 0.997524 -2.396193 -2.345550 0
M  V30 27 C -0.776467 -2.051325 -0.550578 0
M  V30 28 C -0.756505 -3.497002 -0.175223 0
M  V30 29 C -2.221265 -3.563799 -0.504893 0
M  V30 30 C -2.161344 -2.152684 -1.097405 0
M  V30 31 C -1.726403 -0.716668 2.552626 0
M  V30 32 C -1.787714 -0.690297 3.927276 0
M  V30 33 F -2.903399 -0.358314 4.603408 0
M  V30 34 H -1.879767 -0.028427 9.069818 0
M  V30 35 H -0.228167 -0.654304 8.787192 0
M  V30 36 H -1.580083 -1.812958 8.969977 0
M  V30 37 H -2.531440 -0.452425 6.801812 0
M  V30 38 H 1.390991 -1.620456 4.596729 0
M  V30 39 H 1.436001 -1.648225 2.199137 0
M  V30 40 H -1.057563 0.890240 -3.505320 0
M  V30 41 H 2.825708 0.474094 -1.704942 0
M  V30 42 H -0.465676 -3.756378 0.839265 0
M  V30 43 H -0.192565 -4.132879 -0.900530 0
M  V30 44 H -2.916781 -3.593992 0.360510 0
M  V30 45 H -2.536558 -4.340514 -1.232795 0
M  V30 46 H -2.133583 -2.229120 -2.212185 0
M  V30 47 H -2.905748 -1.450137 -0.701314 0
M  V30 48 H -2.630145 -0.454137 2.049400 0
M  V30 END ATOM
M  V30 BEGIN BOND
M  V30 1 1 1 2
M  V30 2 1 2 3
M  V30 3 2 3 4
M  V30 4 1 3 5
M  V30 5 2 5 6
M  V30 6 1 6 7
M  V30 7 2 7 8
M  V30 8 1 8 9
M  V30 9 1 9 10
M  V30 10 2 10 11
M  V30 11 1 10 12
M  V30 12 1 12 13
M  V30 13 2 13 14
M  V30 14 1 14 15
M  V30 15 2 15 16
M  V30 16 1 16 17
M  V30 17 3 17 18
M  V30 18 1 16 19
M  V30 19 1 19 20
M  V30 20 1 20 21
M  V30 21 1 20 22
M  V30 22 1 20 23
M  V30 23 2 19 24
M  V30 24 1 12 25
M  V30 25 2 25 26
M  V30 26 1 25 27
M  V30 27 1 27 28
M  V30 28 1 28 29
M  V30 29 1 29 30
M  V30 30 1 8 31
M  V30 31 2 31 32
M  V30 32 1 32 33
M  V30 33 1 32 5
M  V30 34 1 27 9
M  V30 35 1 24 13
M  V30 36 1 30 27
M  V30 37 1 1 34
M  V30 38 1 1 35
M  V30 39 1 1 36
M  V30 40 1 2 37
M  V30 41 1 6 38
M  V30 42 1 7 39
M  V30 43 1 14 40
M  V30 44 1 24 41
M  V30 45 1 28 42
M  V30 46 1 28 43
M  V30 47 1 29 44
M  V30 48 1 29 45
M  V30 49 1 30 46
M  V30 50 1 30 47
M  V30 51 1 31 48
M  V30 END BOND
M  V30 END CTAB
M  END
>  <Dataset>  (57) 
OralDrugs

>  <Ligand_Instance>  (57) 
nan

>  <PDB_ID>  (57) 
nan

>  <Standardized_SMILES>  (57) 
CNC(=O)c1ccc(N2C(=S)N(c3cnc(C#N)c(C(F)(F)F)c3)C(=O)C23CCC3)cc1F

>  <Name>  (57) 
Apalutamide

>  <Pocket>  (57) 
nan

>  <ATP_Site>  (57) 
nan

>  <Peripheral>  (57) 
nan

>  <Num_H_Atoms_ProtBoundConf>  (57) 
nan

>  <Num_Resolved_Atoms>  (57) 
nan

>  <Num_Not_Resolved_Atoms>  (57) 
nan

$$$$
CHEMBL231779
     RDKit          3D

  0  0  0  0  0  0  0  0  0  0999 V3000
M  V30 BEGIN CTAB
M  V30 COUNTS 59 63 0 0 0
M  V30 BEGIN ATOM
M  V30 1 C 4.796723 -0.510749 5.902596 0
M  V30 2 O 4.594020 0.797515 5.435228 0
M  V30 3 C 4.197210 0.998867 4.116208 0
M  V30 4 C 4.036468 2.331692 3.796140 0
M  V30 5 C 3.646029 2.720225 2.530903 0
M  V30 6 C 3.410947 1.739605 1.561132 0
M  V30 7 N 3.004784 1.965710 0.214490 0
M  V30 8 N 3.676804 2.580914 -0.720935 0
M  V30 9 C 2.980664 2.613704 -1.894569 0
M  V30 10 C 3.320387 3.182988 -3.193831 0
M  V30 11 N 4.605619 3.818445 -3.254832 0
M  V30 12 O 2.561970 3.130986 -4.190511 0
M  V30 13 C 1.802540 1.965721 -1.631220 0
M  V30 14 C 1.834318 1.569994 -0.317238 0
M  V30 15 C 0.665426 0.852554 0.178149 0
M  V30 16 O 0.757366 0.513474 1.408498 0
M  V30 17 N -0.491518 0.533988 -0.585146 0
M  V30 18 C -1.333409 -0.565852 -0.301534 0
M  V30 19 C -1.128347 -1.518617 0.660639 0
M  V30 20 C -1.985199 -2.566831 0.911215 0
M  V30 21 C -3.142362 -2.734595 0.189756 0
M  V30 22 N -4.074276 -3.783365 0.393011 0
M  V30 23 C -5.252194 -3.875954 -0.486395 0
M  V30 24 C -5.910404 -5.235177 -0.335985 0
M  V30 25 C -4.776429 -6.248772 -0.282379 0
M  V30 26 C -4.199171 -6.217888 1.098434 0
M  V30 27 C -3.929184 -4.767787 1.408628 0
M  V30 28 O -3.566205 -4.341754 2.559744 0
M  V30 29 C -3.370732 -1.786992 -0.785961 0
M  V30 30 C -2.492119 -0.740010 -1.019096 0
M  V30 31 C -0.646385 1.471964 -1.660913 0
M  V30 32 C 0.628979 1.660302 -2.451949 0
M  V30 33 C 3.572593 0.408630 1.884603 0
M  V30 34 C 3.966029 0.029703 3.161718 0
M  V30 35 H 4.803589 -0.552702 7.008733 0
M  V30 36 H 4.002082 -1.228585 5.559307 0
M  V30 37 H 5.755698 -0.933814 5.568254 0
M  V30 38 H 4.194837 3.159151 4.478002 0
M  V30 39 H 3.495579 3.746804 2.193512 0
M  V30 40 H 5.602698 3.474032 -3.184856 0
M  V30 41 H 5.029676 4.782790 -3.380678 0
M  V30 42 H -0.246415 -1.482234 1.277833 0
M  V30 43 H -1.740605 -3.274962 1.689385 0
M  V30 44 H -5.962436 -3.063629 -0.340911 0
M  V30 45 H -4.832334 -3.875086 -1.518506 0
M  V30 46 H -6.465688 -5.431810 -1.278251 0
M  V30 47 H -6.562029 -5.296453 0.555508 0
M  V30 48 H -5.184192 -7.231951 -0.580944 0
M  V30 49 H -4.002681 -5.881432 -1.014336 0
M  V30 50 H -3.282627 -6.817956 1.206913 0
M  V30 51 H -4.945101 -6.568125 1.817419 0
M  V30 52 H -4.297231 -1.913065 -1.370653 0
M  V30 53 H -2.834389 -0.106106 -1.809737 0
M  V30 54 H -0.969949 2.446761 -1.224634 0
M  V30 55 H -1.412701 1.144045 -2.390312 0
M  V30 56 H 0.452141 2.535545 -3.131426 0
M  V30 57 H 0.784134 0.764705 -3.106085 0
M  V30 58 H 3.412561 -0.411940 1.198175 0
M  V30 59 H 4.113310 -0.991559 3.489237 0
M  V30 END ATOM
M  V30 BEGIN BOND
M  V30 1 1 1 2
M  V30 2 1 2 3
M  V30 3 2 3 4
M  V30 4 1 4 5
M  V30 5 2 5 6
M  V30 6 1 6 7
M  V30 7 1 7 8
M  V30 8 2 8 9
M  V30 9 1 9 10
M  V30 10 1 10 11
M  V30 11 2 10 12
M  V30 12 1 9 13
M  V30 13 2 13 14
M  V30 14 1 14 15
M  V30 15 2 15 16
M  V30 16 1 15 17
M  V30 17 1 17 18
M  V30 18 2 18 19
M  V30 19 1 19 20
M  V30 20 2 20 21
M  V30 21 1 21 22
M  V30 22 1 22 23
M  V30 23 1 23 24
M  V30 24 1 24 25
M  V30 25 1 25 26
M  V30 26 1 26 27
M  V30 27 2 27 28
M  V30 28 1 21 29
M  V30 29 2 29 30
M  V30 30 1 17 31
M  V30 31 1 31 32
M  V30 32 1 6 33
M  V30 33 2 33 34
M  V30 34 1 34 3
M  V30 35 1 14 7
M  V30 36 1 30 18
M  V30 37 1 32 13
M  V30 38 1 27 22
M  V30 39 1 1 35
M  V30 40 1 1 36
M  V30 41 1 1 37
M  V30 42 1 4 38
M  V30 43 1 5 39
M  V30 44 1 11 40
M  V30 45 1 11 41
M  V30 46 1 19 42
M  V30 47 1 20 43
M  V30 48 1 23 44
M  V30 49 1 23 45
M  V30 50 1 24 46
M  V30 51 1 24 47
M  V30 52 1 25 48
M  V30 53 1 25 49
M  V30 54 1 26 50
M  V30 55 1 26 51
M  V30 56 1 29 52
M  V30 57 1 30 53
M  V30 58 1 31 54
M  V30 59 1 31 55
M  V30 60 1 32 56
M  V30 61 1 32 57
M  V30 62 1 33 58
M  V30 63 1 34 59
M  V30 END BOND
M  V30 END CTAB
M  END
>  <Dataset>  (58) 
OralDrugs

>  <Ligand_Instance>  (58) 
nan

>  <PDB_ID>  (58) 
nan

>  <Standardized_SMILES>  (58) 
COc1ccc(-n2nc(C(N)=O)c3c2C(=O)N(c2ccc(N4CCCCC4=O)cc2)CC3)cc1

>  <Name>  (58) 
Apixaban

>  <Pocket>  (58) 
nan

>  <ATP_Site>  (58) 
nan

>  <Peripheral>  (58) 
nan

>  <Num_H_Atoms_ProtBoundConf>  (58) 
nan

>  <Num_Resolved_Atoms>  (58) 
nan

>  <Num_Not_Resolved_Atoms>  (58) 
nan

$$$$
CHEMBL514800
     RDKit          3D

  0  0  0  0  0  0  0  0  0  0999 V3000
M  V30 BEGIN CTAB
M  V30 COUNTS 56 58 0 0 0
M  V30 BEGIN ATOM
M  V30 1 C 6.292862 -1.879578 2.846410 0
M  V30 2 C 4.957597 -1.559570 2.218123 0
M  V30 3 O 4.474299 -2.593479 1.399755 0
M  V30 4 C 3.260632 -2.425219 0.765680 0
M  V30 5 C 2.502924 -1.282801 0.903027 0
M  V30 6 C 1.257037 -0.993181 0.312192 0
M  V30 7 C 0.594473 0.309406 0.584187 0 CFG=1
M  V30 8 C 0.971444 1.294399 -0.466719 0
M  V30 9 S 0.240296 2.886322 -0.247852 0
M  V30 10 C 0.773549 3.973993 -1.575660 0
M  V30 11 O 0.705932 3.497315 1.041430 0
M  V30 12 O -1.239283 2.896759 -0.271195 0
M  V30 13 N -0.798626 0.252201 0.874602 0
M  V30 14 C -1.266612 0.516972 2.218626 0
M  V30 15 O -0.673198 0.794090 3.303836 0
M  V30 16 C -2.743544 0.436232 2.289681 0
M  V30 17 C -3.711201 0.585772 3.259609 0
M  V30 18 C -5.053663 0.437620 2.984079 0
M  V30 19 C -5.475466 0.133541 1.723512 0
M  V30 20 C -4.536460 -0.023010 0.730126 0
M  V30 21 N -4.966191 -0.342593 -0.598803 0
M  V30 22 C -5.082952 -1.731024 -0.938390 0
M  V30 23 C -5.538783 -1.984759 -2.349437 0
M  V30 24 O -4.777826 -2.466842 0.021099 0
M  V30 25 C -3.194401 0.129580 1.025969 0
M  V30 26 C -2.013349 0.021622 0.181131 0
M  V30 27 O -2.059860 -0.243462 -1.028678 0
M  V30 28 C 0.856210 -2.032801 -0.460252 0
M  V30 29 C 1.520654 -3.215917 -0.673837 0
M  V30 30 C 2.734176 -3.402467 -0.049190 0
M  V30 31 O 3.449097 -4.576792 -0.228288 0
M  V30 32 C 2.886975 -5.565886 -1.070433 0
M  V30 33 H 7.133061 -1.778314 2.119010 0
M  V30 34 H 6.443491 -1.306863 3.769770 0
M  V30 35 H 6.267687 -2.961030 3.127441 0
M  V30 36 H 4.237803 -1.397984 3.041318 0
M  V30 37 H 5.077851 -0.593425 1.670259 0
M  V30 38 H 2.966234 -0.530376 1.564464 0
M  V30 39 H 1.115699 0.645432 1.549410 0
M  V30 40 H 2.066134 1.458983 -0.534730 0
M  V30 41 H 0.675065 0.930079 -1.478276 0
M  V30 42 H 1.569052 3.452585 -2.167724 0
M  V30 43 H 1.225853 4.899278 -1.199594 0
M  V30 44 H -0.032318 4.185589 -2.294925 0
M  V30 45 H -3.390516 0.826833 4.263007 0
M  V30 46 H -5.745514 0.572977 3.807204 0
M  V30 47 H -6.539638 0.026456 1.552338 0
M  V30 48 H -5.150575 0.486028 -1.184947 0
M  V30 49 H -5.868275 -3.040160 -2.366923 0
M  V30 50 H -4.676489 -1.820019 -3.036159 0
M  V30 51 H -6.368390 -1.298650 -2.572318 0
M  V30 52 H -0.075291 -1.958683 -0.978015 0
M  V30 53 H 1.133393 -3.988304 -1.300760 0
M  V30 54 H 3.612424 -6.388480 -1.254739 0
M  V30 55 H 2.656124 -5.115356 -2.057957 0
M  V30 56 H 1.943898 -5.958903 -0.638647 0
M  V30 END ATOM
M  V30 BEGIN BOND
M  V30 1 1 1 2
M  V30 2 1 2 3
M  V30 3 1 3 4
M  V30 4 2 4 5
M  V30 5 1 5 6
M  V30 6 1 6 7
M  V30 7 1 7 8
M  V30 8 1 8 9
M  V30 9 1 9 10
M  V30 10 2 9 11
M  V30 11 2 9 12
M  V30 12 1 7 13
M  V30 13 1 13 14
M  V30 14 2 14 15
M  V30 15 1 14 16
M  V30 16 2 16 17
M  V30 17 1 17 18
M  V30 18 2 18 19
M  V30 19 1 19 20
M  V30 20 1 20 21
M  V30 21 1 21 22
M  V30 22 1 22 23
M  V30 23 2 22 24
M  V30 24 2 20 25
M  V30 25 1 25 26
M  V30 26 2 26 27
M  V30 27 2 6 28
M  V30 28 1 28 29
M  V30 29 2 29 30
M  V30 30 1 30 31
M  V30 31 1 31 32
M  V30 32 1 30 4
M  V30 33 1 26 13
M  V30 34 1 25 16
M  V30 35 1 1 33
M  V30 36 1 1 34
M  V30 37 1 1 35
M  V30 38 1 2 36
M  V30 39 1 2 37
M  V30 40 1 5 38
M  V30 41 1 7 39 CFG=1
M  V30 42 1 8 40
M  V30 43 1 8 41
M  V30 44 1 10 42
M  V30 45 1 10 43
M  V30 46 1 10 44
M  V30 47 1 17 45
M  V30 48 1 18 46
M  V30 49 1 19 47
M  V30 50 1 21 48
M  V30 51 1 23 49
M  V30 52 1 23 50
M  V30 53 1 23 51
M  V30 54 1 28 52
M  V30 55 1 29 53
M  V30 56 1 32 54
M  V30 57 1 32 55
M  V30 58 1 32 56
M  V30 END BOND
M  V30 END CTAB
M  END
>  <Dataset>  (59) 
OralDrugs

>  <Ligand_Instance>  (59) 
nan

>  <PDB_ID>  (59) 
nan

>  <Standardized_SMILES>  (59) 
CCOc1cc([C@@H](CS(C)(=O)=O)N2C(=O)c3cccc(NC(C)=O)c3C2=O)ccc1OC

>  <Name>  (59) 
Apremilast

>  <Pocket>  (59) 
nan

>  <ATP_Site>  (59) 
nan

>  <Peripheral>  (59) 
nan

>  <Num_H_Atoms_ProtBoundConf>  (59) 
nan

>  <Num_Resolved_Atoms>  (59) 
nan

>  <Num_Not_Resolved_Atoms>  (59) 
nan

$$$$
CHEMBL1471
     RDKit          3D

  0  0  0  0  0  0  0  0  0  0999 V3000
M  V30 BEGIN CTAB
M  V30 COUNTS 58 61 0 0 0
M  V30 BEGIN ATOM
M  V30 1 C 2.166997 -2.477034 3.029357 0
M  V30 2 C 1.000840 -2.279813 2.088659 0 CFG=1
M  V30 3 O 0.286213 -1.120948 2.378893 0
M  V30 4 C -1.043045 -1.460644 2.635107 0 CFG=1
M  V30 5 O -1.250926 -1.050687 3.967246 0
M  V30 6 C -1.452071 0.300244 4.077543 0
M  V30 7 C -0.891247 1.103784 2.935230 0
M  V30 8 N -1.466683 0.659248 1.730096 0
M  V30 9 C -1.958034 1.574113 0.807325 0
M  V30 10 C -0.971122 2.542931 0.270971 0
M  V30 11 N -0.686800 3.748779 0.800945 0
M  V30 12 N 0.246996 4.316709 0.035834 0
M  V30 13 C 0.567785 3.492899 -0.979589 0
M  V30 14 O 1.432358 3.800792 -1.848954 0
M  V30 15 N -0.201860 2.384971 -0.821569 0
M  V30 16 C -1.999751 -0.648627 1.783562 0 CFG=1
M  V30 17 C -2.354284 -1.252845 0.510434 0
M  V30 18 C -3.564202 -1.936005 0.333994 0
M  V30 19 C -3.923251 -2.518021 -0.865115 0
M  V30 20 C -3.082906 -2.442958 -1.950208 0
M  V30 21 F -3.362695 -2.987426 -3.159544 0
M  V30 22 C -1.874341 -1.786024 -1.850946 0
M  V30 23 C -1.567983 -1.223680 -0.629055 0
M  V30 24 C 1.573794 -2.119935 0.726908 0
M  V30 25 C 1.503462 -3.154285 -0.195243 0
M  V30 26 C 2.005314 -3.102693 -1.482905 0
M  V30 27 C 1.867755 -4.290058 -2.389339 0
M  V30 28 F 3.027711 -4.485956 -3.104229 0
M  V30 29 F 1.598543 -5.386596 -1.599395 0
M  V30 30 F 0.759476 -4.113838 -3.196010 0
M  V30 31 C 2.615056 -1.920288 -1.845388 0
M  V30 32 C 2.707604 -0.861754 -0.956733 0
M  V30 33 C 3.386055 0.358365 -1.462595 0
M  V30 34 F 3.242685 1.356130 -0.495431 0
M  V30 35 F 4.726031 0.134643 -1.709889 0
M  V30 36 F 2.721879 0.825619 -2.580971 0
M  V30 37 C 2.186213 -0.975147 0.316884 0
M  V30 38 H 2.738268 -3.354805 2.657024 0
M  V30 39 H 1.783532 -2.744689 4.030679 0
M  V30 40 H 2.872721 -1.623892 3.028393 0
M  V30 41 H 0.419211 -3.200508 2.112936 0
M  V30 42 H -1.208064 -2.553427 2.547293 0
M  V30 43 H -2.519058 0.467684 4.250729 0
M  V30 44 H -0.926756 0.642404 5.006162 0
M  V30 45 H -1.240453 2.157703 3.108706 0
M  V30 46 H 0.200170 1.133016 2.992138 0
M  V30 47 H -2.767782 2.189674 1.298391 0
M  V30 48 H -2.470635 1.037957 -0.005234 0
M  V30 49 H 0.581056 5.276515 0.320983 0
M  V30 50 H -0.165368 1.583528 -1.459827 0
M  V30 51 H -2.947394 -0.563336 2.393695 0
M  V30 52 H -4.229176 -1.990570 1.207272 0
M  V30 53 H -4.873638 -3.043323 -0.969491 0
M  V30 54 H -1.159812 -1.683836 -2.657574 0
M  V30 55 H -0.619001 -0.702295 -0.534462 0
M  V30 56 H 1.019684 -4.072173 0.114090 0
M  V30 57 H 3.008712 -1.874677 -2.849930 0
M  V30 58 H 2.276824 -0.122765 0.989410 0
M  V30 END ATOM
M  V30 BEGIN BOND
M  V30 1 1 1 2
M  V30 2 1 2 3
M  V30 3 1 3 4
M  V30 4 1 4 5
M  V30 5 1 5 6
M  V30 6 1 6 7
M  V30 7 1 7 8
M  V30 8 1 8 9
M  V30 9 1 9 10
M  V30 10 2 10 11
M  V30 11 1 11 12
M  V30 12 1 12 13
M  V30 13 2 13 14
M  V30 14 1 13 15
M  V30 15 1 8 16
M  V30 16 1 16 17
M  V30 17 2 17 18
M  V30 18 1 18 19
M  V30 19 2 19 20
M  V30 20 1 20 21
M  V30 21 1 20 22
M  V30 22 2 22 23
M  V30 23 1 2 24
M  V30 24 2 24 25
M  V30 25 1 25 26
M  V30 26 1 26 27
M  V30 27 1 27 28
M  V30 28 1 27 29
M  V30 29 1 27 30
M  V30 30 2 26 31
M  V30 31 1 31 32
M  V30 32 1 32 33
M  V30 33 1 33 34
M  V30 34 1 33 35
M  V30 35 1 33 36
M  V30 36 2 32 37
M  V30 37 1 16 4
M  V30 38 1 23 17
M  V30 39 1 37 24
M  V30 40 1 15 10
M  V30 41 1 1 38
M  V30 42 1 1 39
M  V30 43 1 1 40
M  V30 44 1 2 41 CFG=3
M  V30 45 1 4 42 CFG=1
M  V30 46 1 6 43
M  V30 47 1 6 44
M  V30 48 1 7 45
M  V30 49 1 7 46
M  V30 50 1 9 47
M  V30 51 1 9 48
M  V30 52 1 12 49
M  V30 53 1 15 50
M  V30 54 1 16 51 CFG=1
M  V30 55 1 18 52
M  V30 56 1 19 53
M  V30 57 1 22 54
M  V30 58 1 23 55
M  V30 59 1 25 56
M  V30 60 1 31 57
M  V30 61 1 37 58
M  V30 END BOND
M  V30 END CTAB
M  END
>  <Dataset>  (60) 
OralDrugs

>  <Ligand_Instance>  (60) 
nan

>  <PDB_ID>  (60) 
nan

>  <Standardized_SMILES>  (60) 
C[C@@H](O[C@H]1OCCN(Cc2n[nH]c(=O)[nH]2)[C@H]1c1ccc(F)cc1)c1cc(C(F)(F)F)cc(C(F)(F)F)c1

>  <Name>  (60) 
Aprepitant

>  <Pocket>  (60) 
nan

>  <ATP_Site>  (60) 
nan

>  <Peripheral>  (60) 
nan

>  <Num_H_Atoms_ProtBoundConf>  (60) 
nan

>  <Num_Resolved_Atoms>  (60) 
nan

>  <Num_Not_Resolved_Atoms>  (60) 
nan

$$$$
CHEMBL1112
     RDKit          3D

  0  0  0  0  0  0  0  0  0  0999 V3000
M  V30 BEGIN CTAB
M  V30 COUNTS 57 60 0 0 0
M  V30 BEGIN ATOM
M  V30 1 O 3.646727 -5.622919 4.073028 0
M  V30 2 C 2.826228 -4.677955 3.860973 0
M  V30 3 C 1.889375 -4.090174 4.861569 0
M  V30 4 C 1.965983 -2.587484 4.880217 0
M  V30 5 C 1.825864 -1.992299 3.536876 0
M  V30 6 C 1.296661 -0.695678 3.478952 0
M  V30 7 C 1.217524 -0.213872 2.197046 0
M  V30 8 C 1.577457 -0.829783 1.030004 0
M  V30 9 O 1.494184 -0.392240 -0.152572 0
M  V30 10 C 1.405379 0.069826 -1.393045 0
M  V30 11 C 2.019475 1.427783 -1.672135 0
M  V30 12 C 1.362054 2.584175 -1.015828 0
M  V30 13 C -0.008315 2.951592 -1.486291 0
M  V30 14 N -0.983105 1.968282 -1.334612 0
M  V30 15 C -1.419573 1.664147 -0.028013 0
M  V30 16 C -2.735607 0.934475 0.064310 0
M  V30 17 N -2.771603 0.030769 -1.076622 0
M  V30 18 C -2.632444 -1.403471 -1.083526 0
M  V30 19 C -1.710060 -2.111094 -1.851397 0
M  V30 20 C -1.553360 -3.456143 -1.873614 0
M  V30 21 C -2.376700 -4.220046 -1.065453 0
M  V30 22 C -3.327228 -3.593168 -0.265723 0
M  V30 23 Cl -4.360349 -4.585369 0.755606 0
M  V30 24 C -3.430326 -2.218709 -0.294461 0
M  V30 25 Cl -4.656835 -1.526303 0.753122 0
M  V30 26 C -2.982644 0.825046 -2.274563 0
M  V30 27 C -1.900540 1.814076 -2.412178 0
M  V30 28 C 2.096167 -2.120066 1.193466 0
M  V30 29 C 2.232545 -2.733898 2.445150 0
M  V30 30 N 2.735072 -4.072475 2.584546 0
M  V30 31 H 0.863434 -4.401950 4.579416 0
M  V30 32 H 2.078960 -4.528444 5.862085 0
M  V30 33 H 1.130827 -2.206836 5.519864 0
M  V30 34 H 2.931158 -2.261471 5.309945 0
M  V30 35 H 0.999099 -0.181075 4.377024 0
M  V30 36 H 0.823183 0.800189 2.186530 0
M  V30 37 H 1.872177 -0.665530 -2.154595 0
M  V30 38 H 0.312103 0.124976 -1.692961 0
M  V30 39 H 3.068211 1.380164 -1.324945 0
M  V30 40 H 2.090068 1.607001 -2.769859 0
M  V30 41 H 2.028507 3.495697 -1.147573 0
M  V30 42 H 1.267687 2.424549 0.097232 0
M  V30 43 H 0.040770 3.351773 -2.560845 0
M  V30 44 H -0.291347 3.879602 -0.874229 0
M  V30 45 H -1.514767 2.607494 0.551695 0
M  V30 46 H -0.672058 1.042617 0.476541 0
M  V30 47 H -3.626330 1.562749 0.031752 0
M  V30 48 H -2.724422 0.405137 1.043252 0
M  V30 49 H -1.061472 -1.560517 -2.506641 0
M  V30 50 H -0.799582 -3.924071 -2.512861 0
M  V30 51 H -2.290052 -5.308469 -1.049870 0
M  V30 52 H -3.083712 0.192428 -3.175754 0
M  V30 53 H -3.966357 1.359156 -2.172799 0
M  V30 54 H -1.264828 1.681628 -3.339371 0
M  V30 55 H -2.355757 2.828241 -2.581121 0
M  V30 56 H 2.433421 -2.757525 0.376515 0
M  V30 57 H 3.031089 -4.588291 1.707831 0
M  V30 END ATOM
M  V30 BEGIN BOND
M  V30 1 2 1 2
M  V30 2 1 2 3
M  V30 3 1 3 4
M  V30 4 1 4 5
M  V30 5 2 5 6
M  V30 6 1 6 7
M  V30 7 2 7 8
M  V30 8 1 8 9
M  V30 9 1 9 10
M  V30 10 1 10 11
M  V30 11 1 11 12
M  V30 12 1 12 13
M  V30 13 1 13 14
M  V30 14 1 14 15
M  V30 15 1 15 16
M  V30 16 1 16 17
M  V30 17 1 17 18
M  V30 18 2 18 19
M  V30 19 1 19 20
M  V30 20 2 20 21
M  V30 21 1 21 22
M  V30 22 1 22 23
M  V30 23 2 22 24
M  V30 24 1 24 25
M  V30 25 1 17 26
M  V30 26 1 26 27
M  V30 27 1 8 28
M  V30 28 2 28 29
M  V30 29 1 29 30
M  V30 30 1 30 2
M  V30 31 1 29 5
M  V30 32 1 27 14
M  V30 33 1 24 18
M  V30 34 1 3 31
M  V30 35 1 3 32
M  V30 36 1 4 33
M  V30 37 1 4 34
M  V30 38 1 6 35
M  V30 39 1 7 36
M  V30 40 1 10 37
M  V30 41 1 10 38
M  V30 42 1 11 39
M  V30 43 1 11 40
M  V30 44 1 12 41
M  V30 45 1 12 42
M  V30 46 1 13 43
M  V30 47 1 13 44
M  V30 48 1 15 45
M  V30 49 1 15 46
M  V30 50 1 16 47
M  V30 51 1 16 48
M  V30 52 1 19 49
M  V30 53 1 20 50
M  V30 54 1 21 51
M  V30 55 1 26 52
M  V30 56 1 26 53
M  V30 57 1 27 54
M  V30 58 1 27 55
M  V30 59 1 28 56
M  V30 60 1 30 57
M  V30 END BOND
M  V30 END CTAB
M  END
>  <Dataset>  (61) 
OralDrugs

>  <Ligand_Instance>  (61) 
nan

>  <PDB_ID>  (61) 
nan

>  <Standardized_SMILES>  (61) 
O=C1CCc2ccc(OCCCCN3CCN(c4cccc(Cl)c4Cl)CC3)cc2N1

>  <Name>  (61) 
Aripiprazole

>  <Pocket>  (61) 
nan

>  <ATP_Site>  (61) 
nan

>  <Peripheral>  (61) 
nan

>  <Num_H_Atoms_ProtBoundConf>  (61) 
nan

>  <Num_Resolved_Atoms>  (61) 
nan

>  <Num_Not_Resolved_Atoms>  (61) 
nan

$$$$
CHEMBL1201192
     RDKit          3D

  0  0  0  0  0  0  0  0  0  0999 V3000
M  V30 BEGIN CTAB
M  V30 COUNTS 34 35 0 0 0
M  V30 BEGIN ATOM
M  V30 1 N -1.052535 -2.910924 3.021256 0
M  V30 2 C 0.320625 -2.684117 3.311452 0
M  V30 3 O 0.406570 -3.872360 3.678836 0
M  V30 4 C 1.317577 -1.561883 3.244051 0
M  V30 5 S 0.525343 -0.101081 2.613955 0 CHG=1 VAL=3
M  V30 6 O 1.641635 1.122531 2.548118 0 CHG=-1 VAL=1
M  V30 7 C -0.202581 -0.488679 1.073660 0
M  V30 8 C 0.756387 -0.958162 0.041991 0
M  V30 9 C 0.386399 -1.986409 -0.832209 0
M  V30 10 C 1.179302 -2.512737 -1.830966 0
M  V30 11 C 2.445479 -1.985071 -1.986402 0
M  V30 12 C 2.850363 -0.969566 -1.145200 0
M  V30 13 C 2.028069 -0.473750 -0.162056 0
M  V30 14 C -0.982023 0.606356 0.467251 0
M  V30 15 C -0.648060 1.922608 0.505408 0
M  V30 16 C -1.397758 2.928412 -0.071956 0
M  V30 17 C -2.556591 2.630471 -0.734402 0
M  V30 18 C -2.940818 1.323190 -0.804012 0
M  V30 19 C -2.173457 0.347220 -0.219691 0
M  V30 20 H -1.986665 -2.476724 3.072549 0
M  V30 21 H -2.020173 -2.475510 3.068320 0
M  V30 22 H 1.769865 -1.384561 4.240889 0
M  V30 23 H 2.127563 -1.928131 2.579333 0
M  V30 24 H -0.933002 -1.330297 1.246222 0
M  V30 25 H -0.607384 -2.404685 -0.714556 0
M  V30 26 H 0.788127 -3.309730 -2.449968 0
M  V30 27 H 3.098843 -2.365584 -2.753430 0
M  V30 28 H 3.836920 -0.522864 -1.228891 0
M  V30 29 H 2.360708 0.314787 0.480590 0
M  V30 30 H 0.258833 2.218462 1.016010 0
M  V30 31 H -1.087106 3.980931 -0.015128 0
M  V30 32 H -3.139959 3.417528 -1.184217 0
M  V30 33 H -3.854134 1.036399 -1.319657 0
M  V30 34 H -2.517970 -0.689557 -0.298909 0
M  V30 END ATOM
M  V30 BEGIN BOND
M  V30 1 1 1 2
M  V30 2 2 2 3
M  V30 3 1 2 4
M  V30 4 1 4 5
M  V30 5 1 5 6 CFG=3
M  V30 6 1 5 7
M  V30 7 1 7 8
M  V30 8 2 8 9
M  V30 9 1 9 10
M  V30 10 2 10 11
M  V30 11 1 11 12
M  V30 12 2 12 13
M  V30 13 1 7 14
M  V30 14 2 14 15
M  V30 15 1 15 16
M  V30 16 2 16 17
M  V30 17 1 17 18
M  V30 18 2 18 19
M  V30 19 1 13 8
M  V30 20 1 19 14
M  V30 21 1 1 20
M  V30 22 1 1 21
M  V30 23 1 4 22
M  V30 24 1 4 23
M  V30 25 1 7 24
M  V30 26 1 9 25
M  V30 27 1 10 26
M  V30 28 1 11 27
M  V30 29 1 12 28
M  V30 30 1 13 29
M  V30 31 1 15 30
M  V30 32 1 16 31
M  V30 33 1 17 32
M  V30 34 1 18 33
M  V30 35 1 19 34
M  V30 END BOND
M  V30 END CTAB
M  END
>  <Dataset>  (62) 
OralDrugs

>  <Ligand_Instance>  (62) 
nan

>  <PDB_ID>  (62) 
nan

>  <Standardized_SMILES>  (62) 
NC(=O)C[S@@+]([O-])C(c1ccccc1)c1ccccc1

>  <Name>  (62) 
Armodafinil

>  <Pocket>  (62) 
nan

>  <ATP_Site>  (62) 
nan

>  <Peripheral>  (62) 
nan

>  <Num_H_Atoms_ProtBoundConf>  (62) 
nan

>  <Num_Resolved_Atoms>  (62) 
nan

>  <Num_Not_Resolved_Atoms>  (62) 
nan

$$$$
CHEMBL567597
     RDKit          2D

  0  0  0  0  0  0  0  0  0  0999 V3000
M  V30 BEGIN CTAB
M  V30 COUNTS 42 45 0 0 0
M  V30 BEGIN ATOM
M  V30 1 C -2.739528 1.477212 0.000000 0
M  V30 2 C -3.000000 0.000000 0.000000 0
M  V30 3 C -3.750000 -1.299038 0.000000 0
M  V30 4 C -3.000000 -2.598076 0.000000 0
M  V30 5 C -1.500000 -2.598076 0.000000 0
M  V30 6 C -0.750000 -3.897114 0.000000 0
M  V30 7 C -0.489528 -5.374326 0.000000 0
M  V30 8 C 0.750000 -3.897114 0.000000 0
M  V30 9 O 1.408108 -4.770405 0.000000 0
M  V30 10 O 1.500000 -2.598076 0.000000 0
M  V30 11 C 0.750000 -1.299038 0.000000 0
M  V30 12 O 1.500000 0.000000 0.000000 0
M  V30 13 C 0.750000 1.299038 0.000000 0
M  V30 14 C 1.500000 2.598076 0.000000 0
M  V30 15 C -0.646311 1.847050 0.000000 0
M  V30 16 C -1.945349 1.097050 0.000000 0
M  V30 17 C -1.500000 0.000000 0.000000 0
M  V30 18 C -0.750000 -1.299038 0.000000 0
M  V30 19 O -0.382772 -0.562069 0.000000 0
M  V30 20 O 0.295379 0.612525 0.000000 0
M  V30 21 H -2.815865 2.568044 0.000000 0
M  V30 22 H -4.216739 1.737684 0.000000 0
M  V30 23 H -1.516089 2.047911 0.000000 0
M  V30 24 H -4.409539 0.513030 0.000000 0
M  V30 25 H -4.899067 -0.334857 0.000000 0
M  V30 26 H -4.899067 -2.263220 0.000000 0
M  V30 27 H -4.409539 -3.111106 0.000000 0
M  V30 28 H -3.094244 -3.944783 0.000000 0
M  V30 29 H -2.175000 -3.767211 0.000000 0
M  V30 30 H -1.869160 -4.652085 0.000000 0
M  V30 31 H -0.229055 -6.851538 0.000000 0
M  V30 32 H -1.819018 -5.608751 0.000000 0
M  V30 33 H 0.602475 -5.317126 0.000000 0
M  V30 34 H 2.250000 -1.299038 0.000000 0
M  V30 35 H 2.250000 3.897114 0.000000 0
M  V30 36 H 2.799038 1.848076 0.000000 0
M  V30 37 H 0.714039 3.190374 0.000000 0
M  V30 38 H -0.195172 2.721707 0.000000 0
M  V30 39 H -1.370181 3.160827 0.000000 0
M  V30 40 H -2.267664 2.141969 0.000000 0
M  V30 41 H -3.441154 0.984955 0.000000 0
M  V30 42 H -0.140453 0.633744 0.000000 0
M  V30 END ATOM
M  V30 BEGIN BOND
M  V30 1 1 1 2
M  V30 2 1 2 3
M  V30 3 1 3 4
M  V30 4 1 4 5
M  V30 5 1 5 6
M  V30 6 1 6 7
M  V30 7 1 6 8
M  V30 8 2 8 9
M  V30 9 1 8 10
M  V30 10 1 10 11
M  V30 11 1 11 12
M  V30 12 1 12 13
M  V30 13 1 13 14 CFG=3
M  V30 14 1 13 15
M  V30 15 1 15 16
M  V30 16 1 16 17
M  V30 17 1 17 18
M  V30 18 1 18 19 CFG=1
M  V30 19 1 19 20
M  V30 20 1 17 2
M  V30 21 1 18 5
M  V30 22 1 18 11
M  V30 23 1 20 13
M  V30 24 1 1 21
M  V30 25 1 1 22
M  V30 26 1 1 23
M  V30 27 1 2 24 CFG=3
M  V30 28 1 3 25
M  V30 29 1 3 26
M  V30 30 1 4 27
M  V30 31 1 4 28
M  V30 32 1 5 29 CFG=1
M  V30 33 1 6 30 CFG=1
M  V30 34 1 7 31
M  V30 35 1 7 32
M  V30 36 1 7 33
M  V30 37 1 11 34 CFG=3
M  V30 38 1 14 35
M  V30 39 1 14 36
M  V30 40 1 14 37
M  V30 41 1 15 38
M  V30 42 1 15 39
M  V30 43 1 16 40
M  V30 44 1 16 41
M  V30 45 1 17 42 CFG=1
M  V30 END BOND
M  V30 END CTAB
M  END
>  <Dataset>  (63) 
OralDrugs

>  <Ligand_Instance>  (63) 
nan

>  <PDB_ID>  (63) 
nan

>  <Standardized_SMILES>  (63) 
C[C@@H]1CC[C@H]2[C@@H](C)C(=O)O[C@@H]3O[C@]4(C)CC[C@@H]1[C@]32OO4

>  <Name>  (63) 
Artemisinin

>  <Pocket>  (63) 
nan

>  <ATP_Site>  (63) 
nan

>  <Peripheral>  (63) 
nan

>  <Num_H_Atoms_ProtBoundConf>  (63) 
nan

>  <Num_Resolved_Atoms>  (63) 
nan

>  <Num_Not_Resolved_Atoms>  (63) 
nan

$$$$
CHEMBL252518
     RDKit          2D

  0  0  0  0  0  0  0  0  0  0999 V3000
M  V30 BEGIN CTAB
M  V30 COUNTS 44 47 0 0 0
M  V30 BEGIN ATOM
M  V30 1 C -2.159539 -4.410145 0.000000 0
M  V30 2 C -0.750000 -3.897114 0.000000 0
M  V30 3 C 0.750000 -3.897114 0.000000 0
M  V30 4 O 0.489528 -5.374326 0.000000 0
M  V30 5 O 1.500000 -2.598076 0.000000 0
M  V30 6 C 0.750000 -1.299038 0.000000 0
M  V30 7 O 1.500000 0.000000 0.000000 0
M  V30 8 C 0.750000 1.299038 0.000000 0
M  V30 9 C 1.500000 2.598076 0.000000 0
M  V30 10 C -0.646311 1.847050 0.000000 0
M  V30 11 C -1.945349 1.097050 0.000000 0
M  V30 12 C -1.500000 -0.000000 0.000000 0
M  V30 13 C -3.000000 -0.000000 0.000000 0
M  V30 14 C -4.409539 0.513030 0.000000 0
M  V30 15 C -3.750000 -1.299038 0.000000 0
M  V30 16 C -3.000000 -2.598076 0.000000 0
M  V30 17 C -1.500000 -2.598076 0.000000 0
M  V30 18 C -0.750000 -1.299038 0.000000 0
M  V30 19 O -0.382772 -0.562069 0.000000 0
M  V30 20 O 0.295379 0.612525 0.000000 0
M  V30 21 H -3.569078 -4.923175 0.000000 0
M  V30 22 H -1.646509 -5.819683 0.000000 0
M  V30 23 H -2.839013 -3.402901 0.000000 0
M  V30 24 H -0.489528 -5.374326 0.000000 0
M  V30 25 H 2.159539 -4.410145 0.000000 0
M  V30 26 H 1.638594 -6.338507 0.000000 0
M  V30 27 H 2.250000 -1.299038 0.000000 0
M  V30 28 H 2.250000 3.897114 0.000000 0
M  V30 29 H 2.799038 1.848076 0.000000 0
M  V30 30 H 0.714039 3.190374 0.000000 0
M  V30 31 H -0.195172 2.721707 0.000000 0
M  V30 32 H -1.524927 3.062793 0.000000 0
M  V30 33 H -2.558905 2.465826 0.000000 0
M  V30 34 H -2.830089 1.139018 0.000000 0
M  V30 35 H -0.892500 1.052221 0.000000 0
M  V30 36 H -2.953668 0.884522 0.000000 0
M  V30 37 H -5.819078 1.026060 0.000000 0
M  V30 38 H -5.090561 -0.823461 0.000000 0
M  V30 39 H -3.896509 1.922569 0.000000 0
M  V30 40 H -4.899067 -2.263220 0.000000 0
M  V30 41 H -5.008028 -0.482113 0.000000 0
M  V30 42 H -3.286333 -4.070494 0.000000 0
M  V30 43 H -4.409539 -3.111106 0.000000 0
M  V30 44 H -2.402755 -3.796005 0.000000 0
M  V30 END ATOM
M  V30 BEGIN BOND
M  V30 1 1 1 2
M  V30 2 1 2 3
M  V30 3 1 3 4
M  V30 4 1 3 5
M  V30 5 1 5 6
M  V30 6 1 6 7
M  V30 7 1 7 8
M  V30 8 1 8 9 CFG=3
M  V30 9 1 8 10
M  V30 10 1 10 11
M  V30 11 1 11 12
M  V30 12 1 12 13
M  V30 13 1 13 14
M  V30 14 1 13 15
M  V30 15 1 15 16
M  V30 16 1 16 17
M  V30 17 1 17 18
M  V30 18 1 18 19 CFG=1
M  V30 19 1 19 20
M  V30 20 1 17 2
M  V30 21 1 18 6
M  V30 22 1 20 8
M  V30 23 1 18 12
M  V30 24 1 1 21
M  V30 25 1 1 22
M  V30 26 1 1 23
M  V30 27 1 2 24 CFG=1
M  V30 28 1 3 25 CFG=1
M  V30 29 1 4 26
M  V30 30 1 6 27 CFG=3
M  V30 31 1 9 28
M  V30 32 1 9 29
M  V30 33 1 9 30
M  V30 34 1 10 31
M  V30 35 1 10 32
M  V30 36 1 11 33
M  V30 37 1 11 34
M  V30 38 1 12 35 CFG=1
M  V30 39 1 13 36 CFG=3
M  V30 40 1 14 37
M  V30 41 1 14 38
M  V30 42 1 14 39
M  V30 43 1 15 40
M  V30 44 1 15 41
M  V30 45 1 16 42
M  V30 46 1 16 43
M  V30 47 1 17 44 CFG=1
M  V30 END BOND
M  V30 END CTAB
M  END
>  <Dataset>  (64) 
OralDrugs

>  <Ligand_Instance>  (64) 
nan

>  <PDB_ID>  (64) 
nan

>  <Standardized_SMILES>  (64) 
C[C@H]1[C@@H](O)O[C@@H]2O[C@]3(C)CC[C@H]4[C@H](C)CC[C@@H]1[C@@]24OO3

>  <Name>  (64) 
Artenimol

>  <Pocket>  (64) 
nan

>  <ATP_Site>  (64) 
nan

>  <Peripheral>  (64) 
nan

>  <Num_H_Atoms_ProtBoundConf>  (64) 
nan

>  <Num_Resolved_Atoms>  (64) 
nan

>  <Num_Not_Resolved_Atoms>  (64) 
nan

$$$$
CHEMBL4208229
     RDKit          3D

  0  0  0  0  0  0  0  0  0  0999 V3000
M  V30 BEGIN CTAB
M  V30 COUNTS 49 52 0 0 0
M  V30 BEGIN ATOM
M  V30 1 O 2.331706 0.979616 1.545658 0
M  V30 2 C 1.762435 -0.042651 1.052273 0
M  V30 3 N 2.644989 -1.045184 0.571451 0
M  V30 4 C 4.037431 -0.728387 0.726930 0
M  V30 5 C 4.554152 -0.051255 -0.378597 0
M  V30 6 C 5.880593 0.334305 -0.405196 0
M  V30 7 C 6.661019 0.026434 0.690438 0
M  V30 8 O 8.001700 0.346902 0.807211 0
M  V30 9 C 8.759698 1.028041 -0.166555 0
M  V30 10 F 8.777628 0.314628 -1.372378 0
M  V30 11 F 10.068246 1.045910 0.296074 0
M  V30 12 Cl 8.278242 2.706300 -0.405225 0
M  V30 13 C 6.159461 -0.642744 1.788288 0
M  V30 14 C 4.833634 -1.035423 1.830076 0
M  V30 15 C 0.305994 -0.096556 1.023250 0
M  V30 16 C -0.383265 0.979475 1.539353 0
M  V30 17 N -1.725558 0.907227 1.501450 0
M  V30 18 C -2.400565 -0.162451 0.985158 0
M  V30 19 N -3.815251 0.072472 1.066889 0
M  V30 20 C -4.888668 0.304235 0.089155 0
M  V30 21 C -6.090555 -0.287382 0.777394 0
M  V30 22 C -5.867995 0.170410 2.225079 0 CFG=1
M  V30 23 O -6.577960 -0.718928 3.027210 0
M  V30 24 C -4.382814 0.095279 2.420340 0
M  V30 25 C -1.705510 -1.235835 0.471037 0
M  V30 26 C -2.521818 -2.304719 -0.034413 0
M  V30 27 C -1.902422 -3.416510 -0.580524 0
M  V30 28 C -2.807924 -4.352857 -1.020943 0
M  V30 29 N -3.989038 -3.785857 -0.730585 0
M  V30 30 N -3.797838 -2.613108 -0.166077 0
M  V30 31 C -0.326151 -1.198832 0.491766 0
M  V30 32 H 2.211921 -1.900155 0.158895 0
M  V30 33 H 3.986901 0.209066 -1.250941 0
M  V30 34 H 6.379945 0.861357 -1.209046 0
M  V30 35 H 6.723817 -0.910802 2.674945 0
M  V30 36 H 4.316521 -1.559283 2.616844 0
M  V30 37 H 0.140508 1.833608 1.951622 0
M  V30 38 H -5.071238 1.409500 0.070936 0
M  V30 39 H -4.675455 -0.100221 -0.897259 0
M  V30 40 H -6.119772 -1.391598 0.749424 0
M  V30 41 H -7.033364 0.155871 0.383336 0
M  V30 42 H -6.241660 1.209914 2.298121 0
M  V30 43 H -7.517779 -0.357433 3.055521 0
M  V30 44 H -4.174974 -0.864852 2.950102 0
M  V30 45 H -3.964626 0.896400 3.046526 0
M  V30 46 H -0.831663 -3.643243 -0.704842 0
M  V30 47 H -2.647736 -5.313994 -1.487944 0
M  V30 48 H -4.948148 -4.177734 -0.906989 0
M  V30 49 H 0.186107 -2.056410 0.080365 0
M  V30 END ATOM
M  V30 BEGIN BOND
M  V30 1 2 1 2
M  V30 2 1 2 3
M  V30 3 1 3 4
M  V30 4 2 4 5
M  V30 5 1 5 6
M  V30 6 2 6 7
M  V30 7 1 7 8
M  V30 8 1 8 9
M  V30 9 1 9 10
M  V30 10 1 9 11
M  V30 11 1 9 12
M  V30 12 1 7 13
M  V30 13 2 13 14
M  V30 14 1 2 15
M  V30 15 2 15 16
M  V30 16 1 16 17
M  V30 17 2 17 18
M  V30 18 1 18 19
M  V30 19 1 19 20
M  V30 20 1 20 21
M  V30 21 1 21 22
M  V30 22 1 22 23
M  V30 23 1 22 24
M  V30 24 1 18 25
M  V30 25 1 25 26
M  V30 26 1 26 27
M  V30 27 2 27 28
M  V30 28 1 28 29
M  V30 29 1 29 30
M  V30 30 2 25 31
M  V30 31 1 14 4
M  V30 32 1 31 15
M  V30 33 1 24 19
M  V30 34 2 30 26
M  V30 35 1 3 32
M  V30 36 1 5 33
M  V30 37 1 6 34
M  V30 38 1 13 35
M  V30 39 1 14 36
M  V30 40 1 16 37
M  V30 41 1 20 38
M  V30 42 1 20 39
M  V30 43 1 21 40
M  V30 44 1 21 41
M  V30 45 1 22 42 CFG=3
M  V30 46 1 23 43
M  V30 47 1 24 44
M  V30 48 1 24 45
M  V30 49 1 27 46
M  V30 50 1 28 47
M  V30 51 1 29 48
M  V30 52 1 31 49
M  V30 END BOND
M  V30 END CTAB
M  END
>  <Dataset>  (65) 
OralDrugs

>  <Ligand_Instance>  (65) 
nan

>  <PDB_ID>  (65) 
nan

>  <Standardized_SMILES>  (65) 
O=C(Nc1ccc(OC(F)(F)Cl)cc1)c1cnc(N2CC[C@@H](O)C2)c(-c2cc[nH]n2)c1

>  <Name>  (65) 
Asciminib

>  <Pocket>  (65) 
nan

>  <ATP_Site>  (65) 
nan

>  <Peripheral>  (65) 
nan

>  <Num_H_Atoms_ProtBoundConf>  (65) 
nan

>  <Num_Resolved_Atoms>  (65) 
nan

>  <Num_Not_Resolved_Atoms>  (65) 
nan

$$$$
CHEMBL196
     RDKit          3D

  0  0  0  0  0  0  0  0  0  0999 V3000
M  V30 BEGIN CTAB
M  V30 COUNTS 20 20 0 0 0
M  V30 BEGIN ATOM
M  V30 1 O 2.645537 1.617241 -1.255963 0
M  V30 2 C 1.624154 1.062410 -0.732307 0
M  V30 3 O 1.444919 0.980447 0.638531 0
M  V30 4 C 0.227307 0.314114 0.855892 0 CFG=2
M  V30 5 C 0.388226 -0.940689 1.680833 0 CFG=1
M  V30 6 O 1.246239 -1.789791 0.994776 0
M  V30 7 C 0.942589 -0.594232 3.035236 0
M  V30 8 O 2.182968 0.046952 2.920323 0
M  V30 9 C -0.254494 0.032990 -0.508132 0
M  V30 10 O -1.471119 -0.636894 -0.630146 0
M  V30 11 C 0.532959 0.453855 -1.484840 0
M  V30 12 O 0.340499 0.331802 -2.839899 0
M  V30 13 H -0.468552 1.004252 1.407701 0
M  V30 14 H -0.601463 -1.395007 1.813259 0
M  V30 15 H 1.050839 -2.740285 1.205152 0
M  V30 16 H 0.274643 0.150220 3.520848 0
M  V30 17 H 1.020283 -1.509769 3.661721 0
M  V30 18 H 2.072007 1.035806 2.899846 0
M  V30 19 H -1.687192 -1.247303 -1.415683 0
M  V30 20 H 0.049747 1.152761 -3.373712 0
M  V30 END ATOM
M  V30 BEGIN BOND
M  V30 1 2 1 2
M  V30 2 1 2 3
M  V30 3 1 3 4
M  V30 4 1 4 5
M  V30 5 1 5 6
M  V30 6 1 5 7
M  V30 7 1 7 8
M  V30 8 1 4 9
M  V30 9 1 9 10
M  V30 10 2 9 11
M  V30 11 1 11 12
M  V30 12 1 11 2
M  V30 13 1 4 13 CFG=1
M  V30 14 1 5 14 CFG=1
M  V30 15 1 6 15
M  V30 16 1 7 16
M  V30 17 1 7 17
M  V30 18 1 8 18
M  V30 19 1 10 19
M  V30 20 1 12 20
M  V30 END BOND
M  V30 END CTAB
M  END
>  <Dataset>  (66) 
OralDrugs

>  <Ligand_Instance>  (66) 
nan

>  <PDB_ID>  (66) 
nan

>  <Standardized_SMILES>  (66) 
O=C1O[C@H]([C@@H](O)CO)C(O)=C1O

>  <Name>  (66) 
Ascorbic Acid

>  <Pocket>  (66) 
nan

>  <ATP_Site>  (66) 
nan

>  <Peripheral>  (66) 
nan

>  <Num_H_Atoms_ProtBoundConf>  (66) 
nan

>  <Num_Resolved_Atoms>  (66) 
nan

>  <Num_Not_Resolved_Atoms>  (66) 
nan

$$$$
CHEMBL25
     RDKit          3D

  0  0  0  0  0  0  0  0  0  0999 V3000
M  V30 BEGIN CTAB
M  V30 COUNTS 21 21 0 0 0
M  V30 BEGIN ATOM
M  V30 1 C 1.851096 1.214309 3.753570 0
M  V30 2 C 1.040978 0.520375 2.731639 0
M  V30 3 O -0.150930 0.255139 2.957320 0
M  V30 4 O 1.634605 0.175438 1.527694 0
M  V30 5 C 0.911823 -0.474876 0.544545 0
M  V30 6 C 0.844533 -1.851223 0.474960 0
M  V30 7 C 0.129808 -2.523541 -0.496757 0
M  V30 8 C -0.548477 -1.785110 -1.441883 0
M  V30 9 C -0.510096 -0.393208 -1.412305 0
M  V30 10 C 0.217534 0.225600 -0.421956 0
M  V30 11 C 0.209092 1.666246 -0.457608 0
M  V30 12 O -0.397642 2.381133 -1.304004 0
M  V30 13 O 0.840028 2.561200 0.395225 0
M  V30 14 H 1.935193 0.583050 4.659532 0
M  V30 15 H 2.875658 1.424708 3.382105 0
M  V30 16 H 1.353450 2.154153 4.011960 0
M  V30 17 H 1.396549 -2.379692 1.242940 0
M  V30 18 H 0.164607 -3.604482 -0.430841 0
M  V30 19 H -1.090455 -2.336151 -2.178098 0
M  V30 20 H -1.069179 0.116105 -2.189637 0
M  V30 21 H 0.409665 3.355990 0.820156 0
M  V30 END ATOM
M  V30 BEGIN BOND
M  V30 1 1 1 2
M  V30 2 2 2 3
M  V30 3 1 2 4
M  V30 4 1 4 5
M  V30 5 2 5 6
M  V30 6 1 6 7
M  V30 7 2 7 8
M  V30 8 1 8 9
M  V30 9 2 9 10
M  V30 10 1 10 11
M  V30 11 2 11 12
M  V30 12 1 11 13
M  V30 13 1 10 5
M  V30 14 1 1 14
M  V30 15 1 1 15
M  V30 16 1 1 16
M  V30 17 1 6 17
M  V30 18 1 7 18
M  V30 19 1 8 19
M  V30 20 1 9 20
M  V30 21 1 13 21
M  V30 END BOND
M  V30 END CTAB
M  END
>  <Dataset>  (67) 
OralDrugs

>  <Ligand_Instance>  (67) 
nan

>  <PDB_ID>  (67) 
nan

>  <Standardized_SMILES>  (67) 
CC(=O)Oc1ccccc1C(=O)O

>  <Name>  (67) 
Aspirin

>  <Pocket>  (67) 
nan

>  <ATP_Site>  (67) 
nan

>  <Peripheral>  (67) 
nan

>  <Num_H_Atoms_ProtBoundConf>  (67) 
nan

>  <Num_Resolved_Atoms>  (67) 
nan

>  <Num_Not_Resolved_Atoms>  (67) 
nan

$$$$
CHEMBL2105735
     RDKit          3D

  0  0  0  0  0  0  0  0  0  0999 V3000
M  V30 BEGIN CTAB
M  V30 COUNTS 97 101 0 0 0
M  V30 BEGIN ATOM
M  V30 1 C -0.980235 5.130126 -2.341848 0
M  V30 2 C -0.538357 5.420842 -1.128274 0
M  V30 3 C -1.066104 4.666225 0.015531 0 CFG=2
M  V30 4 C -0.754711 5.020333 1.397540 0
M  V30 5 C -0.049790 3.842345 0.896218 0 CFG=1
M  V30 6 N -0.573571 2.513544 1.155244 0
M  V30 7 C -0.116590 1.208883 0.880311 0
M  V30 8 O 0.986112 1.162313 0.286453 0
M  V30 9 C -0.930536 0.073845 1.294847 0 CFG=2
M  V30 10 C -1.560634 0.199407 2.662857 0
M  V30 11 C -2.204602 -1.218906 2.715810 0 CFG=1
M  V30 12 O -3.225028 -1.379328 1.915254 0
M  V30 13 C -4.239614 -1.541188 1.160668 0
M  V30 14 N -4.104014 -1.449592 -0.173305 0
M  V30 15 C -5.193897 -1.626076 -0.939979 0
M  V30 16 C -6.445789 -1.898195 -0.405331 0
M  V30 17 O -7.544086 -2.073815 -1.228592 0
M  V30 18 C -7.371777 -1.971954 -2.632073 0
M  V30 19 C -6.622147 -1.999250 0.964196 0
M  V30 20 C -7.872880 -2.266297 1.453931 0
M  V30 21 C -8.007669 -2.357205 2.814639 0
M  V30 22 C -6.916982 -2.183223 3.624862 0
M  V30 23 Cl -7.129817 -2.304945 5.350808 0
M  V30 24 C -5.654583 -1.913070 3.126680 0
M  V30 25 C -5.477830 -1.812512 1.741231 0
M  V30 26 C -0.929718 -1.998265 2.352768 0
M  V30 27 N -0.350799 -1.214109 1.247297 0
M  V30 28 C 0.602659 -1.732036 0.368042 0
M  V30 29 O 1.189909 -1.242919 -0.623933 0
M  V30 30 C 1.456451 -2.814352 -0.073559 0 CFG=1
M  V30 31 N 2.220770 -2.388679 -1.256747 0
M  V30 32 C 2.149279 -3.147454 -2.436435 0
M  V30 33 O 1.511648 -4.202823 -2.714468 0
M  V30 34 O 2.758593 -2.981941 -3.677689 0
M  V30 35 C 2.559714 -3.862065 -4.746925 0
M  V30 36 C 1.121558 -3.948883 -5.184477 0
M  V30 37 C 3.023029 -5.270924 -4.397457 0
M  V30 38 C 3.386009 -3.383712 -5.915142 0
M  V30 39 C 2.415277 -3.355489 0.975692 0
M  V30 40 C 1.744535 -3.918468 2.177606 0
M  V30 41 C 3.284846 -4.459222 0.360581 0
M  V30 42 C 3.403647 -2.265921 1.415117 0
M  V30 43 C 1.324597 3.982609 0.300172 0
M  V30 44 O 2.099023 3.334836 -0.446760 0
M  V30 45 N 2.082949 5.164845 0.598404 0
M  V30 46 S 3.608211 5.034893 -0.240799 0
M  V30 47 O 3.398786 4.981750 -1.729667 0
M  V30 48 O 4.359192 3.795321 0.151883 0
M  V30 49 C 4.543242 6.493418 0.192160 0
M  V30 50 C 5.331795 6.383734 1.455038 0
M  V30 51 C 6.031450 6.429452 0.090119 0
M  V30 52 H -1.148292 5.113346 -3.398436 0
M  V30 53 H -1.715724 4.357843 -2.524366 0
M  V30 54 H 0.194579 6.196763 -0.950042 0
M  V30 55 H -2.070721 4.204928 -0.134987 0
M  V30 56 H -0.211522 5.970796 1.646874 0
M  V30 57 H -1.498127 4.810725 2.223176 0
M  V30 58 H -1.511722 2.562945 1.664972 0
M  V30 59 H -1.811917 0.060613 0.576163 0
M  V30 60 H -0.838452 0.265226 3.472903 0
M  V30 61 H -2.328611 0.957298 2.590250 0
M  V30 62 H -2.363363 -1.385685 3.823441 0
M  V30 63 H -5.150607 -1.564380 -2.021876 0
M  V30 64 H -7.019354 -0.978731 -2.907499 0
M  V30 65 H -6.611363 -2.724529 -2.932704 0
M  V30 66 H -8.312423 -2.259453 -3.142256 0
M  V30 67 H -8.704272 -2.396869 0.786275 0
M  V30 68 H -8.990078 -2.569572 3.247402 0
M  V30 69 H -4.799901 -1.775529 3.741733 0
M  V30 70 H -0.286390 -2.005407 3.237527 0
M  V30 71 H -1.258462 -2.989510 2.067357 0
M  V30 72 H 0.899321 -3.717473 -0.433612 0
M  V30 73 H 2.861200 -1.602627 -1.471780 0
M  V30 74 H 0.716671 -4.982309 -5.039424 0
M  V30 75 H 0.462125 -3.286635 -4.584460 0
M  V30 76 H 0.956725 -3.692089 -6.241103 0
M  V30 77 H 3.822335 -5.275280 -3.645261 0
M  V30 78 H 2.167242 -5.940733 -4.133769 0
M  V30 79 H 3.434829 -5.727976 -5.339183 0
M  V30 80 H 2.944846 -3.705622 -6.890973 0
M  V30 81 H 4.411047 -3.764761 -5.833926 0
M  V30 82 H 3.437364 -2.274242 -5.856640 0
M  V30 83 H 1.730715 -3.236871 3.053526 0
M  V30 84 H 0.725775 -4.324226 2.002656 0
M  V30 85 H 2.325029 -4.817762 2.555482 0
M  V30 86 H 3.883655 -4.000127 -0.479869 0
M  V30 87 H 2.671311 -5.254272 -0.106663 0
M  V30 88 H 3.929582 -4.905199 1.119853 0
M  V30 89 H 3.695077 -2.493699 2.469749 0
M  V30 90 H 2.934065 -1.274125 1.394890 0
M  V30 91 H 4.340470 -2.339082 0.830742 0
M  V30 92 H 1.766857 5.954964 1.209928 0
M  V30 93 H 4.011785 7.422968 -0.070086 0
M  V30 94 H 5.369916 7.258347 2.111094 0
M  V30 95 H 5.413178 5.425757 2.010387 0
M  V30 96 H 6.524545 7.380730 -0.181872 0
M  V30 97 H 6.434127 5.474645 -0.284543 0
M  V30 END ATOM
M  V30 BEGIN BOND
M  V30 1 2 1 2
M  V30 2 1 2 3
M  V30 3 1 3 4
M  V30 4 1 4 5
M  V30 5 1 5 6 CFG=1
M  V30 6 1 6 7
M  V30 7 2 7 8
M  V30 8 1 7 9
M  V30 9 1 9 10
M  V30 10 1 10 11
M  V30 11 1 11 12
M  V30 12 1 12 13
M  V30 13 2 13 14
M  V30 14 1 14 15
M  V30 15 2 15 16
M  V30 16 1 16 17
M  V30 17 1 17 18
M  V30 18 1 16 19
M  V30 19 2 19 20
M  V30 20 1 20 21
M  V30 21 2 21 22
M  V30 22 1 22 23
M  V30 23 1 22 24
M  V30 24 2 24 25
M  V30 25 1 11 26
M  V30 26 1 26 27
M  V30 27 1 27 28
M  V30 28 2 28 29
M  V30 29 1 28 30
M  V30 30 1 30 31
M  V30 31 1 31 32
M  V30 32 2 32 33
M  V30 33 1 32 34
M  V30 34 1 34 35
M  V30 35 1 35 36
M  V30 36 1 35 37
M  V30 37 1 35 38
M  V30 38 1 30 39
M  V30 39 1 39 40
M  V30 40 1 39 41
M  V30 41 1 39 42
M  V30 42 1 5 43
M  V30 43 2 43 44
M  V30 44 1 43 45
M  V30 45 1 45 46
M  V30 46 2 46 47
M  V30 47 2 46 48
M  V30 48 1 46 49
M  V30 49 1 49 50
M  V30 50 1 50 51
M  V30 51 1 5 3
M  V30 52 1 27 9
M  V30 53 1 51 49
M  V30 54 1 25 13
M  V30 55 1 25 19
M  V30 56 1 1 52
M  V30 57 1 1 53
M  V30 58 1 2 54
M  V30 59 1 3 55 CFG=1
M  V30 60 1 4 56
M  V30 61 1 4 57
M  V30 62 1 6 58
M  V30 63 1 9 59 CFG=3
M  V30 64 1 10 60
M  V30 65 1 10 61
M  V30 66 1 11 62 CFG=1
M  V30 67 1 15 63
M  V30 68 1 18 64
M  V30 69 1 18 65
M  V30 70 1 18 66
M  V30 71 1 20 67
M  V30 72 1 21 68
M  V30 73 1 24 69
M  V30 74 1 26 70
M  V30 75 1 26 71
M  V30 76 1 30 72 CFG=3
M  V30 77 1 31 73
M  V30 78 1 36 74
M  V30 79 1 36 75
M  V30 80 1 36 76
M  V30 81 1 37 77
M  V30 82 1 37 78
M  V30 83 1 37 79
M  V30 84 1 38 80
M  V30 85 1 38 81
M  V30 86 1 38 82
M  V30 87 1 40 83
M  V30 88 1 40 84
M  V30 89 1 40 85
M  V30 90 1 41 86
M  V30 91 1 41 87
M  V30 92 1 41 88
M  V30 93 1 42 89
M  V30 94 1 42 90
M  V30 95 1 42 91
M  V30 96 1 45 92
M  V30 97 1 49 93
M  V30 98 1 50 94
M  V30 99 1 50 95
M  V30 100 1 51 96
M  V30 101 1 51 97
M  V30 END BOND
M  V30 END CTAB
M  END
>  <Dataset>  (68) 
OralDrugs

>  <Ligand_Instance>  (68) 
nan

>  <PDB_ID>  (68) 
nan

>  <Standardized_SMILES>  (68) 
C=C[C@@H]1C[C@]1(NC(=O)[C@@H]1C[C@@H](Oc2ncc(OC)c3ccc(Cl)cc23)CN1C(=O)[C@@H](NC(=O)OC(C)(C)C)C(C)(C)C)C(=O)NS(=O)(=O)C1CC1

>  <Name>  (68) 
Asunaprevir

>  <Pocket>  (68) 
nan

>  <ATP_Site>  (68) 
nan

>  <Peripheral>  (68) 
nan

>  <Num_H_Atoms_ProtBoundConf>  (68) 
nan

>  <Num_Resolved_Atoms>  (68) 
nan

>  <Num_Not_Resolved_Atoms>  (68) 
nan

$$$$
CHEMBL1163
     RDKit          3D

  0  0  0  0  0  0  0  0  0  0999 V3000
M  V30 BEGIN CTAB
M  V30 COUNTS 103 105 0 0 0
M  V30 BEGIN ATOM
M  V30 1 C -2.600616 -3.228797 8.013036 0
M  V30 2 O -2.675589 -3.056765 6.594818 0
M  V30 3 C -1.514369 -2.991913 5.820512 0
M  V30 4 O -0.483054 -3.102209 6.531058 0
M  V30 5 N -1.436119 -2.825416 4.418314 0
M  V30 6 C -0.105476 -2.783872 3.803218 0 CFG=2
M  V30 7 C 0.105075 -1.533634 3.084554 0
M  V30 8 O -1.033408 -1.007251 3.260393 0
M  V30 9 N 1.186694 -0.972646 2.378390 0
M  V30 10 C 1.263312 0.300862 1.698688 0 CFG=1
M  V30 11 C 2.434790 1.036428 2.328896 0
M  V30 12 C 2.235388 1.245951 3.802674 0
M  V30 13 C 1.605242 2.396725 4.228466 0
M  V30 14 C 1.466332 2.501473 5.607735 0
M  V30 15 C 1.907355 1.556862 6.509299 0
M  V30 16 C 2.532832 0.423801 6.006415 0
M  V30 17 C 2.701998 0.258975 4.649111 0
M  V30 18 C 1.691424 0.027632 0.259557 0 CFG=1
M  V30 19 O 2.949413 -0.609643 0.387208 0
M  V30 20 C 0.756025 -0.888267 -0.467258 0
M  V30 21 N -0.566256 -0.358760 -0.671750 0
M  V30 22 C -1.351228 -1.349125 -1.377728 0
M  V30 23 C -0.810445 -1.735220 -2.688176 0
M  V30 24 C 0.076323 -2.806318 -2.752720 0
M  V30 25 C 0.661706 -3.281260 -3.905983 0
M  V30 26 C 0.371778 -2.675317 -5.109724 0
M  V30 27 C 0.910106 -3.066276 -6.406194 0
M  V30 28 C 1.787169 -4.121424 -6.526800 0
M  V30 29 C 2.333377 -4.545532 -7.724638 0
M  V30 30 C 1.967681 -3.857581 -8.866325 0
M  V30 31 C 1.094609 -2.812872 -8.717672 0
M  V30 32 N 0.561756 -2.403798 -7.528389 0
M  V30 33 C -0.513745 -1.601458 -5.066871 0
M  V30 34 C -1.089342 -1.140830 -3.902306 0
M  V30 35 N -0.526415 0.834037 -1.383944 0
M  V30 36 C -1.632372 1.627292 -1.755537 0
M  V30 37 O -2.796179 1.281377 -1.446958 0
M  V30 38 C -1.654922 2.889423 -2.502796 0 CFG=1
M  V30 39 N -3.043467 3.335832 -2.714826 0
M  V30 40 C -3.452407 3.520017 -4.049626 0
M  V30 41 O -2.685656 3.319145 -5.021253 0
M  V30 42 O -4.699232 3.931143 -4.499608 0
M  V30 43 C -4.963947 4.073677 -5.904263 0
M  V30 44 C -0.928889 4.025446 -1.784966 0
M  V30 45 C -1.556289 4.299247 -0.437979 0
M  V30 46 C 0.548166 3.837483 -1.706695 0
M  V30 47 C -1.150926 5.310550 -2.598165 0
M  V30 48 C -0.031016 -4.031265 2.948907 0
M  V30 49 C -1.095620 -4.057756 1.878248 0
M  V30 50 C -0.313404 -5.267813 3.822540 0
M  V30 51 C 1.341187 -4.202852 2.378402 0
M  V30 52 H -3.517069 -3.725939 8.399115 0
M  V30 53 H -2.465889 -2.273414 8.546898 0
M  V30 54 H -1.756273 -3.944171 8.234317 0
M  V30 55 H -2.338434 -2.743129 3.915644 0
M  V30 56 H 0.624025 -2.895232 4.626013 0
M  V30 57 H 2.019152 -1.593406 2.379676 0
M  V30 58 H 0.342344 0.876613 1.729781 0
M  V30 59 H 2.572672 2.053292 1.894152 0
M  V30 60 H 3.387915 0.495662 2.158904 0
M  V30 61 H 1.248629 3.156031 3.546817 0
M  V30 62 H 0.972295 3.398641 5.986745 0
M  V30 63 H 1.757408 1.719290 7.574785 0
M  V30 64 H 2.883001 -0.326076 6.725503 0
M  V30 65 H 3.192632 -0.635271 4.298860 0
M  V30 66 H 1.889585 0.969418 -0.283174 0
M  V30 67 H 2.879006 -1.572633 0.122641 0
M  V30 68 H 1.191776 -1.032835 -1.483907 0
M  V30 69 H 0.687831 -1.859954 0.020409 0
M  V30 70 H -2.389151 -1.004438 -1.543916 0
M  V30 71 H -1.398449 -2.269699 -0.742949 0
M  V30 72 H 0.347118 -3.327459 -1.843594 0
M  V30 73 H 1.342609 -4.113613 -3.906210 0
M  V30 74 H 2.118018 -4.704821 -5.680589 0
M  V30 75 H 3.028317 -5.388446 -7.789152 0
M  V30 76 H 2.355723 -4.134136 -9.833440 0
M  V30 77 H 0.755504 -2.218790 -9.567904 0
M  V30 78 H -0.771258 -1.090928 -6.002596 0
M  V30 79 H -1.773981 -0.308255 -3.891020 0
M  V30 80 H 0.402234 1.196643 -1.685822 0
M  V30 81 H -1.187667 2.770295 -3.478453 0
M  V30 82 H -3.757534 3.529830 -1.982018 0
M  V30 83 H -4.248171 3.449995 -6.493810 0
M  V30 84 H -4.645812 5.135341 -6.120202 0
M  V30 85 H -6.013991 3.939461 -6.161370 0
M  V30 86 H -0.848573 4.879057 0.171514 0
M  V30 87 H -2.477321 4.894854 -0.609043 0
M  V30 88 H -1.840022 3.364305 0.076674 0
M  V30 89 H 0.982452 3.327499 -2.578084 0
M  V30 90 H 1.086142 4.832911 -1.667367 0
M  V30 91 H 0.852697 3.344807 -0.746794 0
M  V30 92 H -0.945226 6.174814 -1.919596 0
M  V30 93 H -2.195252 5.360013 -2.984690 0
M  V30 94 H -0.388408 5.358333 -3.407447 0
M  V30 95 H -1.971060 -4.672830 2.155471 0
M  V30 96 H -1.405774 -3.036660 1.560260 0
M  V30 97 H -0.659951 -4.521238 0.957250 0
M  V30 98 H -0.565271 -6.113178 3.143857 0
M  V30 99 H 0.619834 -5.497074 4.398020 0
M  V30 100 H -1.188941 -5.108736 4.476668 0
M  V30 101 H 1.590892 -5.276705 2.193150 0
M  V30 102 H 1.438946 -3.676078 1.407839 0
M  V30 103 H 2.071010 -3.834159 3.135608 0
M  V30 END ATOM
M  V30 BEGIN BOND
M  V30 1 1 1 2
M  V30 2 1 2 3
M  V30 3 2 3 4
M  V30 4 1 3 5
M  V30 5 1 5 6
M  V30 6 1 6 7
M  V30 7 2 7 8
M  V30 8 1 7 9
M  V30 9 1 9 10
M  V30 10 1 10 11
M  V30 11 1 11 12
M  V30 12 2 12 13
M  V30 13 1 13 14
M  V30 14 2 14 15
M  V30 15 1 15 16
M  V30 16 2 16 17
M  V30 17 1 10 18
M  V30 18 1 18 19
M  V30 19 1 18 20
M  V30 20 1 20 21
M  V30 21 1 21 22
M  V30 22 1 22 23
M  V30 23 2 23 24
M  V30 24 1 24 25
M  V30 25 2 25 26
M  V30 26 1 26 27
M  V30 27 2 27 28
M  V30 28 1 28 29
M  V30 29 2 29 30
M  V30 30 1 30 31
M  V30 31 2 31 32
M  V30 32 1 26 33
M  V30 33 2 33 34
M  V30 34 1 21 35
M  V30 35 1 35 36
M  V30 36 2 36 37
M  V30 37 1 36 38
M  V30 38 1 38 39
M  V30 39 1 39 40
M  V30 40 2 40 41
M  V30 41 1 40 42
M  V30 42 1 42 43
M  V30 43 1 38 44
M  V30 44 1 44 45
M  V30 45 1 44 46
M  V30 46 1 44 47
M  V30 47 1 6 48
M  V30 48 1 48 49
M  V30 49 1 48 50
M  V30 50 1 48 51
M  V30 51 1 17 12
M  V30 52 1 34 23
M  V30 53 1 32 27
M  V30 54 1 1 52
M  V30 55 1 1 53
M  V30 56 1 1 54
M  V30 57 1 5 55
M  V30 58 1 6 56 CFG=1
M  V30 59 1 9 57
M  V30 60 1 10 58 CFG=3
M  V30 61 1 11 59
M  V30 62 1 11 60
M  V30 63 1 13 61
M  V30 64 1 14 62
M  V30 65 1 15 63
M  V30 66 1 16 64
M  V30 67 1 17 65
M  V30 68 1 18 66 CFG=3
M  V30 69 1 19 67
M  V30 70 1 20 68
M  V30 71 1 20 69
M  V30 72 1 22 70
M  V30 73 1 22 71
M  V30 74 1 24 72
M  V30 75 1 25 73
M  V30 76 1 28 74
M  V30 77 1 29 75
M  V30 78 1 30 76
M  V30 79 1 31 77
M  V30 80 1 33 78
M  V30 81 1 34 79
M  V30 82 1 35 80
M  V30 83 1 38 81 CFG=3
M  V30 84 1 39 82
M  V30 85 1 43 83
M  V30 86 1 43 84
M  V30 87 1 43 85
M  V30 88 1 45 86
M  V30 89 1 45 87
M  V30 90 1 45 88
M  V30 91 1 46 89
M  V30 92 1 46 90
M  V30 93 1 46 91
M  V30 94 1 47 92
M  V30 95 1 47 93
M  V30 96 1 47 94
M  V30 97 1 49 95
M  V30 98 1 49 96
M  V30 99 1 49 97
M  V30 100 1 50 98
M  V30 101 1 50 99
M  V30 102 1 50 100
M  V30 103 1 51 101
M  V30 104 1 51 102
M  V30 105 1 51 103
M  V30 END BOND
M  V30 END CTAB
M  END
>  <Dataset>  (69) 
OralDrugs

>  <Ligand_Instance>  (69) 
nan

>  <PDB_ID>  (69) 
nan

>  <Standardized_SMILES>  (69) 
COC(=O)N[C@H](C(=O)N[C@@H](Cc1ccccc1)[C@@H](O)CN(Cc1ccc(-c2ccccn2)cc1)NC(=O)[C@@H](NC(=O)OC)C(C)(C)C)C(C)(C)C

>  <Name>  (69) 
Atazanavir

>  <Pocket>  (69) 
nan

>  <ATP_Site>  (69) 
nan

>  <Peripheral>  (69) 
nan

>  <Num_H_Atoms_ProtBoundConf>  (69) 
nan

>  <Num_Resolved_Atoms>  (69) 
nan

>  <Num_Not_Resolved_Atoms>  (69) 
nan

$$$$
CHEMBL24
     RDKit          3D

  0  0  0  0  0  0  0  0  0  0999 V3000
M  V30 BEGIN CTAB
M  V30 COUNTS 41 41 0 0 0
M  V30 BEGIN ATOM
M  V30 1 C -3.679151 -3.774098 0.461652 0
M  V30 2 C -2.265853 -4.216378 0.821422 0
M  V30 3 C -2.371923 -5.434439 1.723292 0
M  V30 4 N -1.638181 -3.176355 1.574370 0
M  V30 5 C -1.502271 -1.927983 0.882984 0
M  V30 6 C -0.511879 -1.993581 -0.261019 0
M  V30 7 O 0.742798 -2.336714 0.199833 0
M  V30 8 C -0.589422 -0.819349 -1.167159 0
M  V30 9 O -0.174381 0.396031 -0.729551 0
M  V30 10 C 0.931658 0.990556 -0.294936 0
M  V30 11 C 0.615092 2.327759 0.011539 0
M  V30 12 C 1.577582 3.226502 0.497754 0
M  V30 13 C 2.864716 2.763603 0.672681 0
M  V30 14 C 3.940941 3.658465 1.184460 0
M  V30 15 C 4.002451 3.584086 2.683167 0
M  V30 16 N 4.355549 3.775971 4.034977 0
M  V30 17 O 3.067422 2.796528 2.378453 0
M  V30 18 C 3.225292 1.466751 0.387854 0
M  V30 19 C 2.233797 0.646876 -0.082896 0
M  V30 20 H -3.793750 -3.731907 -0.630304 0
M  V30 21 H -3.954827 -2.823527 0.956126 0
M  V30 22 H -4.430158 -4.521439 0.847936 0
M  V30 23 H -1.694005 -4.548989 -0.062897 0
M  V30 24 H -1.377490 -5.961169 1.776371 0
M  V30 25 H -2.588926 -5.053953 2.747075 0
M  V30 26 H -3.178602 -6.122229 1.447729 0
M  V30 27 H -0.759564 -3.453251 2.045789 0
M  V30 28 H -1.054573 -1.204787 1.623601 0
M  V30 29 H -2.457202 -1.503290 0.583761 0
M  V30 30 H -0.846717 -2.886542 -0.874991 0
M  V30 31 H 1.221369 -2.814155 -0.540699 0
M  V30 32 H -0.131087 -1.126710 -2.143833 0
M  V30 33 H -1.690085 -0.719670 -1.445907 0
M  V30 34 H -0.339319 2.853127 -0.066740 0
M  V30 35 H 1.423619 4.253825 0.754601 0
M  V30 36 H 3.862047 4.696338 0.817301 0
M  V30 37 H 4.942560 3.297578 0.825096 0
M  V30 38 H 3.980294 4.687375 4.424288 0
M  V30 39 H 4.914047 2.945448 4.313534 0
M  V30 40 H 4.227417 1.044903 0.505517 0
M  V30 41 H 2.453549 -0.357257 -0.327146 0
M  V30 END ATOM
M  V30 BEGIN BOND
M  V30 1 1 1 2
M  V30 2 1 2 3
M  V30 3 1 2 4
M  V30 4 1 4 5
M  V30 5 1 5 6
M  V30 6 1 6 7
M  V30 7 1 6 8
M  V30 8 1 8 9
M  V30 9 1 9 10
M  V30 10 2 10 11
M  V30 11 1 11 12
M  V30 12 2 12 13
M  V30 13 1 13 14
M  V30 14 1 14 15
M  V30 15 1 15 16
M  V30 16 2 15 17
M  V30 17 1 13 18
M  V30 18 2 18 19
M  V30 19 1 19 10
M  V30 20 1 1 20
M  V30 21 1 1 21
M  V30 22 1 1 22
M  V30 23 1 2 23
M  V30 24 1 3 24
M  V30 25 1 3 25
M  V30 26 1 3 26
M  V30 27 1 4 27
M  V30 28 1 5 28
M  V30 29 1 5 29
M  V30 30 1 6 30
M  V30 31 1 7 31
M  V30 32 1 8 32
M  V30 33 1 8 33
M  V30 34 1 11 34
M  V30 35 1 12 35
M  V30 36 1 14 36
M  V30 37 1 14 37
M  V30 38 1 16 38
M  V30 39 1 16 39
M  V30 40 1 18 40
M  V30 41 1 19 41
M  V30 END BOND
M  V30 END CTAB
M  END
>  <Dataset>  (70) 
OralDrugs

>  <Ligand_Instance>  (70) 
nan

>  <PDB_ID>  (70) 
nan

>  <Standardized_SMILES>  (70) 
CC(C)NCC(O)COc1ccc(CC(N)=O)cc1

>  <Name>  (70) 
Atenolol

>  <Pocket>  (70) 
nan

>  <ATP_Site>  (70) 
nan

>  <Peripheral>  (70) 
nan

>  <Num_H_Atoms_ProtBoundConf>  (70) 
nan

>  <Num_Resolved_Atoms>  (70) 
nan

>  <Num_Not_Resolved_Atoms>  (70) 
nan

$$$$
CHEMBL3991065
     RDKit          3D

  0  0  0  0  0  0  0  0  0  0999 V3000
M  V30 BEGIN CTAB
M  V30 COUNTS 66 71 0 0 0
M  V30 BEGIN ATOM
M  V30 1 C 3.420888 0.494175 4.918992 0
M  V30 2 C 2.288994 1.092402 4.139803 0 CFG=2
M  V30 3 C 1.194677 0.113683 4.008461 0 CFG=2
M  V30 4 C 1.607482 -1.321265 4.224190 0
M  V30 5 C 1.414456 -2.015516 5.428172 0
M  V30 6 F 0.799880 -1.335788 6.455208 0
M  V30 7 C 1.811381 -3.311939 5.582706 0
M  V30 8 C 2.421789 -3.998042 4.557282 0
M  V30 9 C 2.625267 -3.348811 3.367696 0
M  V30 10 F 3.229855 -4.078489 2.399425 0
M  V30 11 C 2.222215 -2.044109 3.222465 0
M  V30 12 F 2.478413 -1.511383 2.011886 0
M  V30 13 C 0.309420 0.189726 2.827904 0
M  V30 14 C 0.557961 1.274989 1.844156 0 CFG=2
M  V30 15 N -0.076831 0.918793 0.600741 0
M  V30 16 C -1.128055 1.554151 -0.106214 0
M  V30 17 O -1.702744 2.603238 0.280848 0
M  V30 18 C -1.607921 0.992184 -1.367703 0
M  V30 19 C -2.634419 1.633137 -2.030202 0
M  V30 20 N -3.164355 1.201747 -3.212227 0
M  V30 21 C -2.684127 0.076429 -3.811982 0
M  V30 22 C -1.657386 -0.579616 -3.165971 0
M  V30 23 C -1.121654 -0.147325 -1.975191 0
M  V30 24 C -1.247435 -1.788671 -3.952247 0
M  V30 25 C -2.585466 -2.085171 -4.638767 0 CFG=1
M  V30 26 C -2.982934 -0.693053 -5.056668 0
M  V30 27 C -2.453257 -3.042619 -5.733864 0
M  V30 28 O -1.761191 -2.997086 -6.785439 0
M  V30 29 N -3.286188 -4.179370 -5.469715 0
M  V30 30 C -3.945374 -3.940199 -4.208628 0
M  V30 31 N -4.821601 -4.725081 -3.551956 0
M  V30 32 C -5.356372 -4.345972 -2.358601 0
M  V30 33 C -4.968460 -3.123130 -1.840961 0
M  V30 34 C -4.070055 -2.295219 -2.492862 0
M  V30 35 C -3.539432 -2.712087 -3.714454 0
M  V30 36 C 1.973786 1.626232 1.681048 0
M  V30 37 O 2.575308 1.890541 0.585628 0
M  V30 38 N 2.729661 1.669115 2.884899 0
M  V30 39 C 4.035888 2.328044 2.891546 0
M  V30 40 C 3.850647 3.782960 3.242761 0
M  V30 41 F 3.279476 3.925974 4.474035 0
M  V30 42 F 3.039712 4.366725 2.288159 0
M  V30 43 F 5.081324 4.405397 3.127540 0
M  V30 44 H 4.207927 0.043720 4.283493 0
M  V30 45 H 3.964076 1.266199 5.533062 0
M  V30 46 H 3.128428 -0.278542 5.651245 0
M  V30 47 H 1.936201 1.972468 4.733816 0
M  V30 48 H 0.512617 0.295099 4.903609 0
M  V30 49 H 1.630806 -3.790029 6.543630 0
M  V30 50 H 2.706276 -5.021275 4.758212 0
M  V30 51 H -0.790478 0.267018 3.090836 0
M  V30 52 H 0.334752 -0.773341 2.234920 0
M  V30 53 H 0.034669 2.216588 2.182751 0
M  V30 54 H 0.401044 0.048725 0.280803 0
M  V30 55 H -3.102356 2.533781 -1.661608 0
M  V30 56 H -0.317819 -0.670041 -1.479337 0
M  V30 57 H -0.480340 -1.555930 -4.694879 0
M  V30 58 H -1.022500 -2.652566 -3.318266 0
M  V30 59 H -2.263202 -0.349331 -5.822733 0
M  V30 60 H -4.010201 -0.590826 -5.409763 0
M  V30 61 H -3.415706 -5.039442 -6.060247 0
M  V30 62 H -6.064428 -4.976695 -1.824736 0
M  V30 63 H -5.392098 -2.823312 -0.896074 0
M  V30 64 H -3.808354 -1.350581 -2.033119 0
M  V30 65 H 4.430155 2.295669 1.842075 0
M  V30 66 H 4.784087 1.838646 3.507652 0
M  V30 END ATOM
M  V30 BEGIN BOND
M  V30 1 1 1 2
M  V30 2 1 2 3
M  V30 3 1 3 4
M  V30 4 2 4 5
M  V30 5 1 5 6
M  V30 6 1 5 7
M  V30 7 2 7 8
M  V30 8 1 8 9
M  V30 9 1 9 10
M  V30 10 2 9 11
M  V30 11 1 11 12
M  V30 12 1 3 13
M  V30 13 1 13 14
M  V30 14 1 14 15
M  V30 15 1 15 16
M  V30 16 2 16 17
M  V30 17 1 16 18
M  V30 18 2 18 19
M  V30 19 1 19 20
M  V30 20 2 20 21
M  V30 21 1 21 22
M  V30 22 2 22 23
M  V30 23 1 22 24
M  V30 24 1 25 24 CFG=1
M  V30 25 1 25 26
M  V30 26 1 25 27
M  V30 27 2 27 28
M  V30 28 1 27 29
M  V30 29 1 29 30
M  V30 30 2 30 31
M  V30 31 1 31 32
M  V30 32 2 32 33
M  V30 33 1 33 34
M  V30 34 2 34 35
M  V30 35 1 14 36
M  V30 36 2 36 37
M  V30 37 1 36 38
M  V30 38 1 38 39
M  V30 39 1 39 40
M  V30 40 1 40 41
M  V30 41 1 40 42
M  V30 42 1 40 43
M  V30 43 1 38 2
M  V30 44 1 11 4
M  V30 45 1 23 18
M  V30 46 1 35 25
M  V30 47 1 26 21
M  V30 48 1 35 30
M  V30 49 1 1 44
M  V30 50 1 1 45
M  V30 51 1 1 46
M  V30 52 1 2 47 CFG=1
M  V30 53 1 3 48 CFG=1
M  V30 54 1 7 49
M  V30 55 1 8 50
M  V30 56 1 13 51
M  V30 57 1 13 52
M  V30 58 1 14 53 CFG=1
M  V30 59 1 15 54
M  V30 60 1 19 55
M  V30 61 1 23 56
M  V30 62 1 24 57
M  V30 63 1 24 58
M  V30 64 1 26 59
M  V30 65 1 26 60
M  V30 66 1 29 61
M  V30 67 1 32 62
M  V30 68 1 33 63
M  V30 69 1 34 64
M  V30 70 1 39 65
M  V30 71 1 39 66
M  V30 END BOND
M  V30 END CTAB
M  END
>  <Dataset>  (71) 
OralDrugs

>  <Ligand_Instance>  (71) 
nan

>  <PDB_ID>  (71) 
nan

>  <Standardized_SMILES>  (71) 
C[C@@H]1[C@H](c2c(F)ccc(F)c2F)C[C@H](NC(=O)c2cnc3c(c2)C[C@@]2(C3)C(=O)Nc3ncccc32)C(=O)N1CC(F)(F)F

>  <Name>  (71) 
Atogepant

>  <Pocket>  (71) 
nan

>  <ATP_Site>  (71) 
nan

>  <Peripheral>  (71) 
nan

>  <Num_H_Atoms_ProtBoundConf>  (71) 
nan

>  <Num_Resolved_Atoms>  (71) 
nan

>  <Num_Not_Resolved_Atoms>  (71) 
nan

$$$$
CHEMBL641
     RDKit          3D

  0  0  0  0  0  0  0  0  0  0999 V3000
M  V30 BEGIN CTAB
M  V30 COUNTS 40 41 0 0 0
M  V30 BEGIN ATOM
M  V30 1 C -1.493968 -2.427622 3.661668 0
M  V30 2 N -0.369160 -2.956755 2.963576 0
M  V30 3 C -0.600857 -3.219792 1.579179 0
M  V30 4 C -0.789814 -2.046798 0.696358 0
M  V30 5 C 0.355997 -1.089686 0.622118 0 CFG=1
M  V30 6 O 0.014504 -0.048442 -0.263755 0
M  V30 7 C 0.589448 0.237599 -1.464555 0
M  V30 8 C 1.623608 -0.420916 -2.088091 0
M  V30 9 C 2.168978 -0.086319 -3.308951 0
M  V30 10 C 1.634574 1.010005 -3.975812 0
M  V30 11 C 0.594541 1.709839 -3.398018 0
M  V30 12 C 0.108854 1.311436 -2.179238 0
M  V30 13 C -1.011509 2.118840 -1.621355 0
M  V30 14 C 0.722737 -0.439719 1.902392 0
M  V30 15 C 1.842315 -0.847336 2.633248 0
M  V30 16 C 2.117387 -0.196839 3.801160 0
M  V30 17 C 1.380892 0.840360 4.332042 0
M  V30 18 C 0.269131 1.214885 3.567034 0
M  V30 19 C -0.076594 0.608506 2.377723 0
M  V30 20 H -2.447997 -2.451503 3.096697 0
M  V30 21 H -1.268569 -1.417684 4.039774 0
M  V30 22 H -1.649445 -3.047713 4.586324 0
M  V30 23 H 0.127731 -3.712259 3.454772 0
M  V30 24 H 0.147369 -3.957831 1.167230 0
M  V30 25 H -1.566453 -3.806038 1.524374 0
M  V30 26 H -1.724426 -1.532767 0.975124 0
M  V30 27 H -0.952823 -2.431710 -0.330541 0
M  V30 28 H 1.233602 -1.619570 0.190006 0
M  V30 29 H 2.059081 -1.270081 -1.600743 0
M  V30 30 H 2.998797 -0.679825 -3.725987 0
M  V30 31 H 2.086970 1.249595 -4.937098 0
M  V30 32 H 0.198646 2.560316 -3.939819 0
M  V30 33 H -0.710346 2.467560 -0.597286 0
M  V30 34 H -1.326543 2.933873 -2.275760 0
M  V30 35 H -1.863833 1.437728 -1.462131 0
M  V30 36 H 2.456258 -1.654182 2.265592 0
M  V30 37 H 2.983295 -0.532261 4.339904 0
M  V30 38 H 1.610377 1.349388 5.261649 0
M  V30 39 H -0.315532 2.018401 3.965870 0
M  V30 40 H -0.953743 0.976874 1.871154 0
M  V30 END ATOM
M  V30 BEGIN BOND
M  V30 1 1 1 2
M  V30 2 1 2 3
M  V30 3 1 3 4
M  V30 4 1 4 5
M  V30 5 1 5 6
M  V30 6 1 6 7
M  V30 7 2 7 8
M  V30 8 1 8 9
M  V30 9 2 9 10
M  V30 10 1 10 11
M  V30 11 2 11 12
M  V30 12 1 12 13
M  V30 13 1 5 14
M  V30 14 2 14 15
M  V30 15 1 15 16
M  V30 16 2 16 17
M  V30 17 1 17 18
M  V30 18 2 18 19
M  V30 19 1 12 7
M  V30 20 1 19 14
M  V30 21 1 1 20
M  V30 22 1 1 21
M  V30 23 1 1 22
M  V30 24 1 2 23
M  V30 25 1 3 24
M  V30 26 1 3 25
M  V30 27 1 4 26
M  V30 28 1 4 27
M  V30 29 1 5 28 CFG=3
M  V30 30 1 8 29
M  V30 31 1 9 30
M  V30 32 1 10 31
M  V30 33 1 11 32
M  V30 34 1 13 33
M  V30 35 1 13 34
M  V30 36 1 13 35
M  V30 37 1 15 36
M  V30 38 1 16 37
M  V30 39 1 17 38
M  V30 40 1 18 39
M  V30 41 1 19 40
M  V30 END BOND
M  V30 END CTAB
M  END
>  <Dataset>  (72) 
OralDrugs

>  <Ligand_Instance>  (72) 
nan

>  <PDB_ID>  (72) 
nan

>  <Standardized_SMILES>  (72) 
CNCC[C@@H](Oc1ccccc1C)c1ccccc1

>  <Name>  (72) 
Atomoxetine

>  <Pocket>  (72) 
nan

>  <ATP_Site>  (72) 
nan

>  <Peripheral>  (72) 
nan

>  <Num_H_Atoms_ProtBoundConf>  (72) 
nan

>  <Num_Resolved_Atoms>  (72) 
nan

>  <Num_Not_Resolved_Atoms>  (72) 
nan

$$$$
CHEMBL1487
     RDKit          3D

  0  0  0  0  0  0  0  0  0  0999 V3000
M  V30 BEGIN CTAB
M  V30 COUNTS 76 79 0 0 0
M  V30 BEGIN ATOM
M  V30 1 C 0.191647 1.589141 3.329016 0
M  V30 2 C 0.846313 0.374163 2.633837 0
M  V30 3 C 1.398943 -0.386932 3.762479 0
M  V30 4 C -0.100871 -0.241307 1.720559 0
M  V30 5 C -0.408672 0.470868 0.547321 0
M  V30 6 C -0.101547 1.747206 -0.104711 0
M  V30 7 O 0.272162 1.667252 -1.335484 0
M  V30 8 N -0.085905 3.122159 0.200997 0
M  V30 9 C 0.379824 3.735130 -0.983197 0
M  V30 10 C 1.753273 3.931426 -0.766962 0
M  V30 11 C 2.555082 4.512032 -1.761798 0
M  V30 12 C 1.965982 4.883929 -2.950409 0
M  V30 13 C 0.614024 4.690669 -3.157965 0
M  V30 14 C -0.165949 4.120716 -2.178183 0
M  V30 15 C -1.353337 -0.317108 -0.128099 0
M  V30 16 C -2.002646 -0.028122 -1.424220 0
M  V30 17 C -2.847708 0.992474 -1.734993 0
M  V30 18 C -3.364388 1.119032 -3.003629 0
M  V30 19 C -3.021233 0.191992 -3.979357 0
M  V30 20 C -2.163859 -0.838443 -3.649107 0
M  V30 21 C -1.642951 -0.964162 -2.372028 0
M  V30 22 C -1.616642 -1.459472 0.592368 0
M  V30 23 C -2.586062 -2.460692 0.161091 0
M  V30 24 C -2.475173 -3.715291 -0.377628 0
M  V30 25 C -3.572578 -4.477766 -0.699165 0
M  V30 26 C -4.867098 -3.995776 -0.488135 0
M  V30 27 F -5.866393 -4.835388 -0.845853 0
M  V30 28 C -4.984175 -2.737523 0.051178 0
M  V30 29 C -3.880911 -1.968565 0.377478 0
M  V30 30 N -0.828869 -1.372755 1.707290 0
M  V30 31 C -0.810715 -2.359138 2.710268 0
M  V30 32 C -0.103468 -3.642408 2.449427 0
M  V30 33 C 1.311886 -3.690123 2.010964 0 CFG=1
M  V30 34 O 1.586264 -5.132968 1.932121 0
M  V30 35 C 1.488198 -3.305666 0.563789 0
M  V30 36 C 2.878407 -3.315148 0.000358 0 CFG=1
M  V30 37 O 2.684680 -2.954136 -1.383993 0
M  V30 38 C 3.788745 -2.238232 0.495880 0
M  V30 39 C 4.096448 -2.220666 1.918527 0
M  V30 40 O 4.383187 -1.047754 2.335704 0
M  V30 41 O 4.386184 -2.218027 3.269154 0
M  V30 42 H 0.214572 1.455421 4.435959 0
M  V30 43 H 0.689803 2.534821 3.026230 0
M  V30 44 H -0.867579 1.583157 3.024227 0
M  V30 45 H 1.686379 0.797262 2.050806 0
M  V30 46 H 0.776947 -0.290940 4.705687 0
M  V30 47 H 2.312844 0.212898 4.092203 0
M  V30 48 H 1.806145 -1.365043 3.613149 0
M  V30 49 H -0.408899 3.333740 1.153961 0
M  V30 50 H 2.393752 3.703247 0.091493 0
M  V30 51 H 3.621037 4.706674 -1.691583 0
M  V30 52 H 2.511480 5.333185 -3.764819 0
M  V30 53 H 0.076882 4.951941 -4.053691 0
M  V30 54 H -1.231811 3.892367 -2.162981 0
M  V30 55 H -3.057029 1.667620 -0.892809 0
M  V30 56 H -4.036269 1.959815 -3.193813 0
M  V30 57 H -3.452112 0.325698 -4.967106 0
M  V30 58 H -1.924063 -1.535483 -4.440684 0
M  V30 59 H -0.981812 -1.808449 -2.229889 0
M  V30 60 H -1.450299 -3.978368 -0.498572 0
M  V30 61 H -3.303192 -5.438873 -1.111949 0
M  V30 62 H -6.018811 -2.414390 0.195470 0
M  V30 63 H -4.179159 -0.998697 0.798481 0
M  V30 64 H -1.894167 -2.682292 2.866622 0
M  V30 65 H -0.538527 -2.028331 3.724256 0
M  V30 66 H -0.201425 -4.222811 3.437598 0
M  V30 67 H -0.721904 -4.325230 1.776794 0
M  V30 68 H 2.075675 -3.361999 2.669430 0
M  V30 69 H 0.908555 -5.428072 1.248687 0
M  V30 70 H 1.071688 -2.306406 0.304668 0
M  V30 71 H 0.852524 -4.052065 -0.002693 0
M  V30 72 H 3.379971 -4.320463 0.051472 0
M  V30 73 H 3.436377 -2.428654 -1.718306 0
M  V30 74 H 3.349231 -1.265747 0.136645 0
M  V30 75 H 4.748643 -2.341256 -0.061035 0
M  V30 76 H 4.857053 -3.068732 3.628657 0
M  V30 END ATOM
M  V30 BEGIN BOND
M  V30 1 1 1 2
M  V30 2 1 2 3
M  V30 3 1 2 4
M  V30 4 2 4 5
M  V30 5 1 5 6
M  V30 6 2 6 7
M  V30 7 1 6 8
M  V30 8 1 8 9
M  V30 9 2 9 10
M  V30 10 1 10 11
M  V30 11 2 11 12
M  V30 12 1 12 13
M  V30 13 2 13 14
M  V30 14 1 5 15
M  V30 15 1 15 16
M  V30 16 2 16 17
M  V30 17 1 17 18
M  V30 18 2 18 19
M  V30 19 1 19 20
M  V30 20 2 20 21
M  V30 21 2 15 22
M  V30 22 1 22 23
M  V30 23 2 23 24
M  V30 24 1 24 25
M  V30 25 2 25 26
M  V30 26 1 26 27
M  V30 27 1 26 28
M  V30 28 2 28 29
M  V30 29 1 22 30
M  V30 30 1 30 31
M  V30 31 1 31 32
M  V30 32 1 32 33
M  V30 33 1 33 34
M  V30 34 1 33 35
M  V30 35 1 35 36
M  V30 36 1 36 37
M  V30 37 1 36 38
M  V30 38 1 38 39
M  V30 39 2 39 40
M  V30 40 1 39 41
M  V30 41 1 30 4
M  V30 42 1 14 9
M  V30 43 1 21 16
M  V30 44 1 29 23
M  V30 45 1 1 42
M  V30 46 1 1 43
M  V30 47 1 1 44
M  V30 48 1 2 45
M  V30 49 1 3 46
M  V30 50 1 3 47
M  V30 51 1 3 48
M  V30 52 1 8 49
M  V30 53 1 10 50
M  V30 54 1 11 51
M  V30 55 1 12 52
M  V30 56 1 13 53
M  V30 57 1 14 54
M  V30 58 1 17 55
M  V30 59 1 18 56
M  V30 60 1 19 57
M  V30 61 1 20 58
M  V30 62 1 21 59
M  V30 63 1 24 60
M  V30 64 1 25 61
M  V30 65 1 28 62
M  V30 66 1 29 63
M  V30 67 1 31 64
M  V30 68 1 31 65
M  V30 69 1 32 66
M  V30 70 1 32 67
M  V30 71 1 33 68 CFG=1
M  V30 72 1 34 69
M  V30 73 1 35 70
M  V30 74 1 35 71
M  V30 75 1 36 72 CFG=3
M  V30 76 1 37 73
M  V30 77 1 38 74
M  V30 78 1 38 75
M  V30 79 1 41 76
M  V30 END BOND
M  V30 END CTAB
M  END
>  <Dataset>  (73) 
OralDrugs

>  <Ligand_Instance>  (73) 
nan

>  <PDB_ID>  (73) 
nan

>  <Standardized_SMILES>  (73) 
CC(C)c1c(C(=O)Nc2ccccc2)c(-c2ccccc2)c(-c2ccc(F)cc2)n1CC[C@@H](O)C[C@@H](O)CC(=O)O

>  <Name>  (73) 
Atorvastatin

>  <Pocket>  (73) 
nan

>  <ATP_Site>  (73) 
nan

>  <Peripheral>  (73) 
nan

>  <Num_H_Atoms_ProtBoundConf>  (73) 
nan

>  <Num_Resolved_Atoms>  (73) 
nan

>  <Num_Not_Resolved_Atoms>  (73) 
nan

$$$$
CHEMBL1450
     RDKit          3D

  0  0  0  0  0  0  0  0  0  0999 V3000
M  V30 BEGIN CTAB
M  V30 COUNTS 45 48 0 0 0
M  V30 BEGIN ATOM
M  V30 1 O -1.580475 -4.995858 2.634317 0
M  V30 2 C -1.636824 -4.047548 1.840775 0
M  V30 3 C -0.682811 -2.948909 1.902512 0
M  V30 4 O 0.277002 -3.040124 2.895175 0
M  V30 5 C -0.614432 -1.874929 1.133767 0
M  V30 6 C 0.309624 -0.741277 1.135491 0 CFG=1
M  V30 7 C -0.459783 0.549306 1.446466 0
M  V30 8 C 0.446427 1.656902 1.035863 0
M  V30 9 C 1.784348 1.640055 1.681479 0 CFG=2
M  V30 10 C 2.729179 2.462248 0.850646 0
M  V30 11 C 3.272457 3.677311 1.221484 0
M  V30 12 C 4.131221 4.335976 0.365073 0
M  V30 13 C 4.458815 3.789240 -0.873825 0
M  V30 14 Cl 5.551901 4.632147 -1.958757 0
M  V30 15 C 3.918876 2.577682 -1.246917 0
M  V30 16 C 3.066559 1.945591 -0.372210 0
M  V30 17 C 2.336728 0.348413 2.104797 0
M  V30 18 C 1.418603 -0.832243 2.160056 0
M  V30 19 C -1.659863 -1.827154 0.087729 0
M  V30 20 O -1.853892 -0.930731 -0.802614 0
M  V30 21 C -2.648295 -2.874589 -0.047844 0
M  V30 22 C -3.659703 -2.921004 -0.985975 0
M  V30 23 C -4.581610 -3.936327 -1.081918 0
M  V30 24 C -4.537816 -4.997705 -0.211611 0
M  V30 25 C -3.561731 -5.030747 0.754462 0
M  V30 26 C -2.654950 -3.979656 0.807899 0
M  V30 27 H 0.913574 -3.827083 2.867762 0
M  V30 28 H 0.792373 -0.586371 0.150836 0
M  V30 29 H -1.354566 0.552711 0.813573 0
M  V30 30 H -0.744633 0.584542 2.520776 0
M  V30 31 H 0.535422 1.615038 -0.072322 0
M  V30 32 H -0.119937 2.612203 1.232494 0
M  V30 33 H 1.670860 2.270701 2.615162 0
M  V30 34 H 2.976356 4.042561 2.193899 0
M  V30 35 H 4.544928 5.276625 0.665064 0
M  V30 36 H 4.202136 2.191235 -2.219504 0
M  V30 37 H 2.674939 1.002923 -0.715890 0
M  V30 38 H 3.153343 0.077127 1.372011 0
M  V30 39 H 2.895537 0.436132 3.070237 0
M  V30 40 H 1.949308 -1.792319 1.985573 0
M  V30 41 H 1.009550 -0.877251 3.185507 0
M  V30 42 H -3.723297 -2.100025 -1.687781 0
M  V30 43 H -5.348441 -3.884697 -1.860929 0
M  V30 44 H -5.276082 -5.762572 -0.326032 0
M  V30 45 H -3.492092 -5.840555 1.453390 0
M  V30 END ATOM
M  V30 BEGIN BOND
M  V30 1 2 1 2
M  V30 2 1 2 3
M  V30 3 1 3 4
M  V30 4 2 3 5
M  V30 5 1 5 6
M  V30 6 1 6 7
M  V30 7 1 7 8
M  V30 8 1 8 9
M  V30 9 1 9 10
M  V30 10 2 10 11
M  V30 11 1 11 12
M  V30 12 2 12 13
M  V30 13 1 13 14
M  V30 14 1 13 15
M  V30 15 2 15 16
M  V30 16 1 9 17
M  V30 17 1 17 18
M  V30 18 1 5 19
M  V30 19 2 19 20
M  V30 20 1 19 21
M  V30 21 2 21 22
M  V30 22 1 22 23
M  V30 23 2 23 24
M  V30 24 1 24 25
M  V30 25 2 25 26
M  V30 26 1 26 2
M  V30 27 1 18 6
M  V30 28 1 26 21
M  V30 29 1 16 10
M  V30 30 1 4 27
M  V30 31 1 6 28 CFG=3
M  V30 32 1 7 29
M  V30 33 1 7 30
M  V30 34 1 8 31
M  V30 35 1 8 32
M  V30 36 1 9 33 CFG=1
M  V30 37 1 11 34
M  V30 38 1 12 35
M  V30 39 1 15 36
M  V30 40 1 16 37
M  V30 41 1 17 38
M  V30 42 1 17 39
M  V30 43 1 18 40
M  V30 44 1 18 41
M  V30 45 1 22 42
M  V30 46 1 23 43
M  V30 47 1 24 44
M  V30 48 1 25 45
M  V30 END BOND
M  V30 END CTAB
M  END
>  <Dataset>  (74) 
OralDrugs

>  <Ligand_Instance>  (74) 
nan

>  <PDB_ID>  (74) 
nan

>  <Standardized_SMILES>  (74) 
O=C1C(O)=C([C@H]2CC[C@H](c3ccc(Cl)cc3)CC2)C(=O)c2ccccc21

>  <Name>  (74) 
Atovaquone

>  <Pocket>  (74) 
nan

>  <ATP_Site>  (74) 
nan

>  <Peripheral>  (74) 
nan

>  <Num_H_Atoms_ProtBoundConf>  (74) 
nan

>  <Num_Resolved_Atoms>  (74) 
nan

>  <Num_Not_Resolved_Atoms>  (74) 
nan

$$$$
CHEMBL517712
     RDKit          3D

  0  0  0  0  0  0  0  0  0  0999 V3000
M  V30 BEGIN CTAB
M  V30 COUNTS 44 46 0 0 0
M  V30 BEGIN ATOM
M  V30 1 C 0.662407 -4.115421 -2.462553 0
M  V30 2 N 0.795602 -3.050459 -1.552978 0
M  V30 3 C 2.023853 -2.326121 -1.582911 0 CFG=2
M  V30 4 C 2.932877 -2.995745 -0.574149 0
M  V30 5 C 1.937620 -3.416543 0.491617 0
M  V30 6 C 0.577691 -3.309827 -0.170080 0 CFG=1
M  V30 7 C -0.056632 -2.026526 0.373113 0
M  V30 8 C 0.333221 -0.831092 -0.489555 0 CFG=1
M  V30 9 O 0.200771 0.306188 0.306706 0
M  V30 10 C -0.653451 1.347546 0.092270 0
M  V30 11 O -1.403971 1.310915 -0.905046 0
M  V30 12 C -0.696061 2.513175 1.028304 0
M  V30 13 C 0.652937 3.179731 0.995747 0
M  V30 14 O 1.668752 2.330089 1.386249 0
M  V30 15 C -1.052171 2.129017 2.409205 0
M  V30 16 C -0.300881 1.212382 3.137532 0
M  V30 17 C -0.649198 0.865294 4.427758 0
M  V30 18 C -1.764359 1.415334 5.055713 0
M  V30 19 C -2.513941 2.314204 4.362096 0
M  V30 20 C -2.160605 2.656047 3.074887 0
M  V30 21 C 1.720854 -0.931118 -1.023546 0
M  V30 22 H -0.225921 -4.724048 -2.145742 0
M  V30 23 H 0.375423 -3.697151 -3.463366 0
M  V30 24 H 1.531799 -4.786652 -2.582761 0
M  V30 25 H 2.507324 -2.282984 -2.569744 0
M  V30 26 H 3.458653 -3.870728 -1.006175 0
M  V30 27 H 3.663265 -2.277445 -0.154670 0
M  V30 28 H 2.052187 -2.762169 1.377229 0
M  V30 29 H 2.195789 -4.460297 0.766810 0
M  V30 30 H -0.057861 -4.184966 0.028595 0
M  V30 31 H -1.137119 -2.154996 0.286557 0
M  V30 32 H 0.249227 -1.877190 1.428292 0
M  V30 33 H -0.378354 -0.777862 -1.360308 0
M  V30 34 H -1.456756 3.249049 0.696684 0
M  V30 35 H 0.569059 4.095152 1.607949 0
M  V30 36 H 0.811337 3.536448 -0.047104 0
M  V30 37 H 2.417854 2.348334 0.728470 0
M  V30 38 H 0.566508 0.753264 2.715066 0
M  V30 39 H -0.089258 0.156387 5.024819 0
M  V30 40 H -2.085173 1.183221 6.059484 0
M  V30 41 H -3.401764 2.783858 4.795109 0
M  V30 42 H -2.737237 3.373598 2.486279 0
M  V30 43 H 1.816979 -0.238200 -1.885846 0
M  V30 44 H 2.496608 -0.632512 -0.288419 0
M  V30 END ATOM
M  V30 BEGIN BOND
M  V30 1 1 1 2
M  V30 2 1 2 3
M  V30 3 1 3 4
M  V30 4 1 4 5
M  V30 5 1 5 6
M  V30 6 1 6 7
M  V30 7 1 7 8
M  V30 8 1 8 9
M  V30 9 1 9 10
M  V30 10 2 10 11
M  V30 11 1 10 12
M  V30 12 1 12 13
M  V30 13 1 13 14
M  V30 14 1 12 15
M  V30 15 2 15 16
M  V30 16 1 16 17
M  V30 17 2 17 18
M  V30 18 1 18 19
M  V30 19 2 19 20
M  V30 20 1 8 21
M  V30 21 1 6 2
M  V30 22 1 20 15
M  V30 23 1 21 3
M  V30 24 1 1 22
M  V30 25 1 1 23
M  V30 26 1 1 24
M  V30 27 1 3 25 CFG=3
M  V30 28 1 4 26
M  V30 29 1 4 27
M  V30 30 1 5 28
M  V30 31 1 5 29
M  V30 32 1 6 30 CFG=3
M  V30 33 1 7 31
M  V30 34 1 7 32
M  V30 35 1 8 33 CFG=3
M  V30 36 1 12 34
M  V30 37 1 13 35
M  V30 38 1 13 36
M  V30 39 1 14 37
M  V30 40 1 16 38
M  V30 41 1 17 39
M  V30 42 1 18 40
M  V30 43 1 19 41
M  V30 44 1 20 42
M  V30 45 1 21 43
M  V30 46 1 21 44
M  V30 END BOND
M  V30 END CTAB
M  END
>  <Dataset>  (75) 
OralDrugs

>  <Ligand_Instance>  (75) 
nan

>  <PDB_ID>  (75) 
nan

>  <Standardized_SMILES>  (75) 
CN1[C@@H]2CC[C@H]1C[C@@H](OC(=O)C(CO)c1ccccc1)C2

>  <Name>  (75) 
Atropine

>  <Pocket>  (75) 
nan

>  <ATP_Site>  (75) 
nan

>  <Peripheral>  (75) 
nan

>  <Num_H_Atoms_ProtBoundConf>  (75) 
nan

>  <Num_Resolved_Atoms>  (75) 
nan

>  <Num_Not_Resolved_Atoms>  (75) 
nan

$$$$
CHEMBL3989871
     RDKit          3D

  0  0  0  0  0  0  0  0  0  0999 V3000
M  V30 BEGIN CTAB
M  V30 COUNTS 77 81 0 0 0
M  V30 BEGIN ATOM
M  V30 1 C 0.999598 -2.660031 7.348624 0
M  V30 2 C 1.162231 -2.898059 5.887473 0
M  V30 3 C 0.191971 -3.595734 5.163610 0
M  V30 4 C 0.344600 -3.820433 3.793036 0
M  V30 5 C 1.479324 -3.344450 3.132011 0
M  V30 6 N 1.421588 -3.687228 1.753873 0
M  V30 7 C 0.775023 -2.752354 0.862259 0
M  V30 8 O 0.393988 -1.796357 1.552330 0
M  V30 9 C 0.752204 -3.183336 -0.553084 0 CFG=1
M  V30 10 C 0.023383 -4.526555 -0.556418 0
M  V30 11 C -1.193285 -4.545448 -1.419054 0
M  V30 12 C -2.165643 -3.416095 -1.153604 0
M  V30 13 N -1.367136 -2.188049 -0.994800 0
M  V30 14 C -1.896874 -1.026371 -0.435826 0
M  V30 15 O -1.468311 0.116420 -0.189367 0
M  V30 16 C -3.259634 -0.861871 0.053378 0
M  V30 17 C -3.740897 -1.215020 1.296954 0
M  V30 18 C -2.774519 -1.826925 2.231969 0
M  V30 19 C -5.056712 -1.014440 1.661825 0
M  V30 20 C -5.949863 -0.444562 0.778704 0
M  V30 21 C -5.539590 -0.067617 -0.479030 0
M  V30 22 C -4.202311 -0.287124 -0.808155 0
M  V30 23 F -3.789860 0.086963 -2.053166 0
M  V30 24 C -0.019390 -2.266657 -1.446463 0 CFG=1
M  V30 25 C 0.637936 -0.995440 -1.787452 0
M  V30 26 C -0.106327 -0.135907 -2.575498 0
M  V30 27 C 0.450699 1.069419 -2.932990 0
M  V30 28 C 1.706287 1.487010 -2.559286 0
M  V30 29 N 2.309139 2.718212 -2.910011 0
M  V30 30 C 1.805857 3.803456 -3.683391 0
M  V30 31 C 0.641718 4.541148 -3.126010 0
M  V30 32 C 0.692072 5.868614 -3.887004 0
M  V30 33 C 2.099070 6.055047 -4.365821 0
M  V30 34 C 2.860008 4.811982 -4.050423 0
M  V30 35 C 2.390825 0.586115 -1.776900 0
M  V30 36 C 1.907298 -0.637447 -1.376991 0
M  V30 37 C 2.436555 -2.656926 3.843588 0
M  V30 38 C 2.265540 -2.447031 5.195080 0
M  V30 39 C 3.315872 -1.708444 5.916961 0
M  V30 40 F 2.833417 -0.542490 6.511682 0
M  V30 41 F 3.904712 -2.514791 6.895517 0
M  V30 42 F 4.335158 -1.320440 5.073167 0
M  V30 43 H 1.815915 -3.081770 7.956877 0
M  V30 44 H 0.814331 -1.581578 7.558245 0
M  V30 45 H 0.063775 -3.179219 7.670668 0
M  V30 46 H -0.669038 -3.941582 5.735244 0
M  V30 47 H -0.483192 -4.370316 3.376095 0
M  V30 48 H 1.875076 -4.623352 1.534977 0
M  V30 49 H 1.785683 -3.286206 -0.933310 0
M  V30 50 H -0.260831 -4.872529 0.440144 0
M  V30 51 H 0.729308 -5.279286 -0.962619 0
M  V30 52 H -0.941253 -4.666128 -2.481483 0
M  V30 53 H -1.746291 -5.484792 -1.146766 0
M  V30 54 H -2.742424 -3.284269 -2.092259 0
M  V30 55 H -2.836129 -3.595546 -0.321335 0
M  V30 56 H -2.226104 -2.688550 1.811371 0
M  V30 57 H -3.316037 -2.199069 3.127421 0
M  V30 58 H -2.048909 -1.063998 2.632211 0
M  V30 59 H -5.396966 -1.304998 2.650758 0
M  V30 60 H -7.005188 -0.268738 1.028443 0
M  V30 61 H -6.185992 0.383043 -1.219796 0
M  V30 62 H -0.050987 -2.836120 -2.429484 0
M  V30 63 H -1.111164 -0.382596 -2.917141 0
M  V30 64 H -0.147655 1.718075 -3.551256 0
M  V30 65 H 3.295987 2.881025 -2.547860 0
M  V30 66 H 1.452088 3.382726 -4.678162 0
M  V30 67 H 0.703346 4.724525 -2.031762 0
M  V30 68 H -0.302460 4.059878 -3.427206 0
M  V30 69 H 0.039583 5.807332 -4.787040 0
M  V30 70 H 0.308650 6.696781 -3.258077 0
M  V30 71 H 2.545739 6.973747 -3.927110 0
M  V30 72 H 2.154893 6.202611 -5.482380 0
M  V30 73 H 3.455219 4.410178 -4.892616 0
M  V30 74 H 3.572689 4.932988 -3.208213 0
M  V30 75 H 3.399519 0.798716 -1.412492 0
M  V30 76 H 2.459173 -1.314350 -0.775341 0
M  V30 77 H 3.255665 -2.340377 3.235635 0
M  V30 END ATOM
M  V30 BEGIN BOND
M  V30 1 1 1 2
M  V30 2 2 2 3
M  V30 3 1 3 4
M  V30 4 2 4 5
M  V30 5 1 5 6
M  V30 6 1 6 7
M  V30 7 2 7 8
M  V30 8 1 7 9
M  V30 9 1 9 10
M  V30 10 1 10 11
M  V30 11 1 11 12
M  V30 12 1 12 13
M  V30 13 1 13 14
M  V30 14 2 14 15
M  V30 15 1 14 16
M  V30 16 2 16 17
M  V30 17 1 17 18
M  V30 18 1 17 19
M  V30 19 2 19 20
M  V30 20 1 20 21
M  V30 21 2 21 22
M  V30 22 1 22 23
M  V30 23 1 13 24
M  V30 24 1 24 25
M  V30 25 2 25 26
M  V30 26 1 26 27
M  V30 27 2 27 28
M  V30 28 1 28 29
M  V30 29 1 29 30
M  V30 30 1 30 31
M  V30 31 1 31 32
M  V30 32 1 32 33
M  V30 33 1 33 34
M  V30 34 1 28 35
M  V30 35 2 35 36
M  V30 36 1 5 37
M  V30 37 2 37 38
M  V30 38 1 38 39
M  V30 39 1 39 40
M  V30 40 1 39 41
M  V30 41 1 39 42
M  V30 42 1 38 2
M  V30 43 1 24 9
M  V30 44 1 36 25
M  V30 45 1 22 16
M  V30 46 1 34 30
M  V30 47 1 1 43
M  V30 48 1 1 44
M  V30 49 1 1 45
M  V30 50 1 3 46
M  V30 51 1 4 47
M  V30 52 1 6 48
M  V30 53 1 9 49 CFG=3
M  V30 54 1 10 50
M  V30 55 1 10 51
M  V30 56 1 11 52
M  V30 57 1 11 53
M  V30 58 1 12 54
M  V30 59 1 12 55
M  V30 60 1 18 56
M  V30 61 1 18 57
M  V30 62 1 18 58
M  V30 63 1 19 59
M  V30 64 1 20 60
M  V30 65 1 21 61
M  V30 66 1 24 62 CFG=3
M  V30 67 1 26 63
M  V30 68 1 27 64
M  V30 69 1 29 65
M  V30 70 1 30 66
M  V30 71 1 31 67
M  V30 72 1 31 68
M  V30 73 1 32 69
M  V30 74 1 32 70
M  V30 75 1 33 71
M  V30 76 1 33 72
M  V30 77 1 34 73
M  V30 78 1 34 74
M  V30 79 1 35 75
M  V30 80 1 36 76
M  V30 81 1 37 77
M  V30 END BOND
M  V30 END CTAB
M  END
>  <Dataset>  (76) 
OralDrugs

>  <Ligand_Instance>  (76) 
nan

>  <PDB_ID>  (76) 
nan

>  <Standardized_SMILES>  (76) 
Cc1ccc(NC(=O)[C@H]2CCCN(C(=O)c3c(C)cccc3F)[C@H]2c2ccc(NC3CCCC3)cc2)cc1C(F)(F)F

>  <Name>  (76) 
Avacopan

>  <Pocket>  (76) 
nan

>  <ATP_Site>  (76) 
nan

>  <Peripheral>  (76) 
nan

>  <Num_H_Atoms_ProtBoundConf>  (76) 
nan

>  <Num_Resolved_Atoms>  (76) 
nan

>  <Num_Not_Resolved_Atoms>  (76) 
nan

$$$$
CHEMBL1963681
     RDKit          3D

  0  0  0  0  0  0  0  0  0  0999 V3000
M  V30 BEGIN CTAB
M  V30 COUNTS 60 63 0 0 0
M  V30 BEGIN ATOM
M  V30 1 C -0.054719 -1.311122 6.587351 0
M  V30 2 O 0.662579 -2.207070 5.783007 0
M  V30 3 C 1.207685 -1.854252 4.566611 0
M  V30 4 C 1.015055 -0.535217 4.152305 0
M  V30 5 C 1.534302 -0.118579 2.946163 0
M  V30 6 C 2.248912 -0.923434 2.092073 0
M  V30 7 C 2.851002 -0.599156 0.784619 0
M  V30 8 N 2.035745 -0.853099 -0.356679 0
M  V30 9 C 0.800535 -0.297954 -0.745593 0
M  V30 10 N 0.279133 0.630840 0.076082 0
M  V30 11 C -0.892074 1.237481 -0.188687 0
M  V30 12 N -1.560364 2.235871 0.611748 0
M  V30 13 C -2.740456 3.021961 0.258515 0
M  V30 14 C -2.416956 4.367451 0.889693 0
M  V30 15 C -1.797632 3.967277 2.197811 0
M  V30 16 C -1.177359 2.645040 1.943909 0 CFG=1
M  V30 17 C -1.644047 1.626670 2.980383 0
M  V30 18 O -3.038991 1.531718 2.909979 0
M  V30 19 N -1.529254 0.877880 -1.316582 0
M  V30 20 C -1.081846 -0.037584 -2.189662 0
M  V30 21 C 0.113853 -0.635592 -1.889112 0
M  V30 22 C 0.636479 -1.628425 -2.809337 0
M  V30 23 O 1.627746 -2.373623 -2.935473 0
M  V30 24 N -0.088549 -1.981804 -3.996808 0
M  V30 25 C 0.473399 -2.971792 -4.884207 0
M  V30 26 C 0.332534 -4.366980 -4.380981 0
M  V30 27 N 1.284868 -4.949310 -3.595530 0
M  V30 28 C 1.067173 -6.226326 -3.189473 0
M  V30 29 C -0.050751 -6.961675 -3.521811 0
M  V30 30 C -0.976465 -6.320284 -4.317102 0
M  V30 31 N -0.774556 -5.060620 -4.725065 0
M  V30 32 C 2.445466 -2.248881 2.502638 0
M  V30 33 C 1.924074 -2.663596 3.711232 0
M  V30 34 Cl 2.129036 -4.306645 4.298222 0
M  V30 35 H 0.510848 -0.380741 6.803442 0
M  V30 36 H -0.249097 -1.810611 7.560061 0
M  V30 37 H -1.061452 -1.106961 6.168467 0
M  V30 38 H 0.469600 0.209084 4.731058 0
M  V30 39 H 1.407116 0.888123 2.601202 0
M  V30 40 H 3.833075 -1.115561 0.647991 0
M  V30 41 H 3.141754 0.498497 0.740142 0
M  V30 42 H 2.413125 -1.568779 -1.012323 0
M  V30 43 H -2.758504 3.098129 -0.835176 0
M  V30 44 H -3.678660 2.593016 0.614647 0
M  V30 45 H -3.319869 4.957860 1.037454 0
M  V30 46 H -1.642601 4.872807 0.271437 0
M  V30 47 H -2.569450 3.848836 2.994436 0
M  V30 48 H -0.993094 4.669970 2.518010 0
M  V30 49 H -0.056340 2.671076 1.957700 0
M  V30 50 H -1.258094 0.620887 2.803800 0
M  V30 51 H -1.298175 1.982276 3.970085 0
M  V30 52 H -3.259229 0.832676 2.213705 0
M  V30 53 H -1.713060 -0.197230 -3.026113 0
M  V30 54 H -1.031024 -1.556081 -4.273129 0
M  V30 55 H -0.050405 -2.927683 -5.850435 0
M  V30 56 H 1.529778 -2.706489 -5.114711 0
M  V30 57 H 1.840411 -6.669647 -2.566963 0
M  V30 58 H -0.199996 -7.980679 -3.184009 0
M  V30 59 H -1.899534 -6.814106 -4.639593 0
M  V30 60 H 3.003992 -2.962802 1.883447 0
M  V30 END ATOM
M  V30 BEGIN BOND
M  V30 1 1 1 2
M  V30 2 1 2 3
M  V30 3 2 3 4
M  V30 4 1 4 5
M  V30 5 2 5 6
M  V30 6 1 6 7
M  V30 7 1 7 8
M  V30 8 1 8 9
M  V30 9 2 9 10
M  V30 10 1 10 11
M  V30 11 1 11 12
M  V30 12 1 12 13
M  V30 13 1 13 14
M  V30 14 1 14 15
M  V30 15 1 15 16
M  V30 16 1 16 17
M  V30 17 1 17 18
M  V30 18 2 11 19
M  V30 19 1 19 20
M  V30 20 2 20 21
M  V30 21 1 21 22
M  V30 22 2 22 23
M  V30 23 1 22 24
M  V30 24 1 24 25
M  V30 25 1 25 26
M  V30 26 2 26 27
M  V30 27 1 27 28
M  V30 28 2 28 29
M  V30 29 1 29 30
M  V30 30 2 30 31
M  V30 31 1 6 32
M  V30 32 2 32 33
M  V30 33 1 33 34
M  V30 34 1 33 3
M  V30 35 1 21 9
M  V30 36 1 31 26
M  V30 37 1 16 12
M  V30 38 1 1 35
M  V30 39 1 1 36
M  V30 40 1 1 37
M  V30 41 1 4 38
M  V30 42 1 5 39
M  V30 43 1 7 40
M  V30 44 1 7 41
M  V30 45 1 8 42
M  V30 46 1 13 43
M  V30 47 1 13 44
M  V30 48 1 14 45
M  V30 49 1 14 46
M  V30 50 1 15 47
M  V30 51 1 15 48
M  V30 52 1 16 49 CFG=3
M  V30 53 1 17 50
M  V30 54 1 17 51
M  V30 55 1 18 52
M  V30 56 1 20 53
M  V30 57 1 24 54
M  V30 58 1 25 55
M  V30 59 1 25 56
M  V30 60 1 28 57
M  V30 61 1 29 58
M  V30 62 1 30 59
M  V30 63 1 32 60
M  V30 END BOND
M  V30 END CTAB
M  END
>  <Dataset>  (77) 
OralDrugs

>  <Ligand_Instance>  (77) 
nan

>  <PDB_ID>  (77) 
nan

>  <Standardized_SMILES>  (77) 
COc1ccc(CNc2nc(N3CCC[C@H]3CO)ncc2C(=O)NCc2ncccn2)cc1Cl

>  <Name>  (77) 
Avanafil

>  <Pocket>  (77) 
nan

>  <ATP_Site>  (77) 
nan

>  <Peripheral>  (77) 
nan

>  <Num_H_Atoms_ProtBoundConf>  (77) 
nan

>  <Num_Resolved_Atoms>  (77) 
nan

>  <Num_Not_Resolved_Atoms>  (77) 
nan

$$$$
CHEMBL4204794
     RDKit          3D

  0  0  0  0  0  0  0  0  0  0999 V3000
M  V30 BEGIN CTAB
M  V30 COUNTS 64 69 0 0 0
M  V30 BEGIN ATOM
M  V30 1 C 5.277216 -1.664832 5.184365 0
M  V30 2 N 5.087560 -1.261915 3.788635 0
M  V30 3 C 4.307517 -0.235722 3.396475 0
M  V30 4 C 4.365667 -0.147198 2.019216 0
M  V30 5 C 3.710334 0.783267 1.101735 0
M  V30 6 C 2.480042 1.398175 1.225229 0
M  V30 7 C 2.216806 2.208158 0.143162 0
M  V30 8 C 1.114434 2.985400 -0.135161 0
M  V30 9 N -0.019905 3.157675 0.707173 0
M  V30 10 C -1.219495 3.699702 0.083509 0
M  V30 11 C -2.377020 2.751496 0.292670 0
M  V30 12 N -1.867841 1.574028 0.965518 0
M  V30 13 C -1.902816 0.259731 0.425223 0
M  V30 14 N -2.428867 0.034670 -0.792003 0
M  V30 15 C -2.455875 -1.231427 -1.304418 0
M  V30 16 C -1.937342 -2.261802 -0.553887 0
M  V30 17 C -1.946029 -3.648446 -1.073127 0 CFG=1
M  V30 18 C -1.175833 -3.740014 -2.377190 0
M  V30 19 N -1.315521 -4.573441 -0.161881 0
M  V30 20 C -3.352634 -4.098724 -1.226782 0
M  V30 21 C -4.095380 -4.189889 -0.072748 0
M  V30 22 C -5.405531 -4.601875 -0.147661 0
M  V30 23 C -5.903780 -4.905006 -1.408361 0
M  V30 24 F -7.200583 -5.312012 -1.484028 0
M  V30 25 C -5.130192 -4.802443 -2.547169 0
M  V30 26 C -3.817476 -4.391757 -2.488399 0
M  V30 27 C -1.402686 -2.031568 0.684029 0
M  V30 28 N -1.409986 -0.763345 1.123387 0
M  V30 29 C -1.275154 1.783961 2.298210 0
M  V30 30 C -0.336971 2.949769 2.103807 0
M  V30 31 N 1.160452 3.649124 -1.286874 0
M  V30 32 C 2.213663 3.549850 -2.093353 0
M  V30 33 N 3.266705 2.777716 -1.776059 0
M  V30 34 N 3.294532 2.086607 -0.648677 0
M  V30 35 C 4.199818 1.248296 -0.108309 0
M  V30 36 C 5.223674 -1.178478 1.619838 0
M  V30 37 N 5.644857 -1.836315 2.715084 0
M  V30 38 H 4.519575 -2.454161 5.465049 0
M  V30 39 H 6.260873 -2.139672 5.305064 0
M  V30 40 H 5.083054 -0.807282 5.842844 0
M  V30 41 H 3.704844 0.451137 3.994283 0
M  V30 42 H 1.879585 1.195249 2.090945 0
M  V30 43 H -1.106078 3.831104 -1.009327 0
M  V30 44 H -1.472804 4.696807 0.492612 0
M  V30 45 H -3.097853 3.226177 1.011474 0
M  V30 46 H -2.882744 2.466262 -0.650382 0
M  V30 47 H -2.876587 -1.438203 -2.287353 0
M  V30 48 H -1.379252 -2.911854 -3.059990 0
M  V30 49 H -0.085571 -3.713821 -2.092139 0
M  V30 50 H -1.324365 -4.736620 -2.814681 0
M  V30 51 H -1.685739 -5.532072 -0.181637 0
M  V30 52 H -0.293363 -4.491427 -0.085622 0
M  V30 53 H -3.682148 -3.948497 0.891177 0
M  V30 54 H -5.981076 -4.672462 0.749018 0
M  V30 55 H -5.538660 -5.043951 -3.522540 0
M  V30 56 H -3.244745 -4.323097 -3.390830 0
M  V30 57 H -0.976420 -2.779291 1.336015 0
M  V30 58 H -0.650201 0.915616 2.589901 0
M  V30 59 H -2.008365 2.048289 3.059684 0
M  V30 60 H -0.900467 3.865502 2.470510 0
M  V30 61 H 0.547260 2.936889 2.774451 0
M  V30 62 H 2.188906 4.118916 -3.020887 0
M  V30 63 H 5.153566 1.001636 -0.580709 0
M  V30 64 H 5.472881 -1.367974 0.565604 0
M  V30 END ATOM
M  V30 BEGIN BOND
M  V30 1 1 1 2
M  V30 2 1 2 3
M  V30 3 2 3 4
M  V30 4 1 4 5
M  V30 5 1 5 6
M  V30 6 2 6 7
M  V30 7 1 7 8
M  V30 8 1 8 9
M  V30 9 1 9 10
M  V30 10 1 10 11
M  V30 11 1 11 12
M  V30 12 1 12 13
M  V30 13 2 13 14
M  V30 14 1 14 15
M  V30 15 2 15 16
M  V30 16 1 16 17
M  V30 17 1 17 18
M  V30 18 1 17 19 CFG=1
M  V30 19 1 17 20
M  V30 20 2 20 21
M  V30 21 1 21 22
M  V30 22 2 22 23
M  V30 23 1 23 24
M  V30 24 1 23 25
M  V30 25 2 25 26
M  V30 26 1 16 27
M  V30 27 2 27 28
M  V30 28 1 12 29
M  V30 29 1 29 30
M  V30 30 2 8 31
M  V30 31 1 31 32
M  V30 32 2 32 33
M  V30 33 1 33 34
M  V30 34 1 34 35
M  V30 35 1 4 36
M  V30 36 2 36 37
M  V30 37 1 37 2
M  V30 38 2 35 5
M  V30 39 1 34 7
M  V30 40 1 30 9
M  V30 41 1 28 13
M  V30 42 1 26 20
M  V30 43 1 1 38
M  V30 44 1 1 39
M  V30 45 1 1 40
M  V30 46 1 3 41
M  V30 47 1 6 42
M  V30 48 1 10 43
M  V30 49 1 10 44
M  V30 50 1 11 45
M  V30 51 1 11 46
M  V30 52 1 15 47
M  V30 53 1 18 48
M  V30 54 1 18 49
M  V30 55 1 18 50
M  V30 56 1 19 51
M  V30 57 1 19 52
M  V30 58 1 21 53
M  V30 59 1 22 54
M  V30 60 1 25 55
M  V30 61 1 26 56
M  V30 62 1 27 57
M  V30 63 1 29 58
M  V30 64 1 29 59
M  V30 65 1 30 60
M  V30 66 1 30 61
M  V30 67 1 32 62
M  V30 68 1 35 63
M  V30 69 1 36 64
M  V30 END BOND
M  V30 END CTAB
M  END
>  <Dataset>  (78) 
OralDrugs

>  <Ligand_Instance>  (78) 
nan

>  <PDB_ID>  (78) 
nan

>  <Standardized_SMILES>  (78) 
Cn1cc(-c2cc3c(N4CCN(c5ncc([C@@](C)(N)c6ccc(F)cc6)cn5)CC4)ncnn3c2)cn1

>  <Name>  (78) 
Avapritinib

>  <Pocket>  (78) 
nan

>  <ATP_Site>  (78) 
nan

>  <Peripheral>  (78) 
nan

>  <Num_H_Atoms_ProtBoundConf>  (78) 
nan

>  <Num_Resolved_Atoms>  (78) 
nan

>  <Num_Not_Resolved_Atoms>  (78) 
nan

$$$$
CHEMBL2103883
     RDKit          3D

  0  0  0  0  0  0  0  0  0  0999 V3000
M  V30 BEGIN CTAB
M  V30 COUNTS 76 81 0 0 0
M  V30 BEGIN ATOM
M  V30 1 O 1.768988 0.295060 3.618078 0
M  V30 2 C 1.890680 -0.801021 4.348546 0
M  V30 3 N 1.202045 -0.014080 5.405580 0
M  V30 4 C 1.006818 1.235124 4.502107 0
M  V30 5 N 0.927406 2.161843 3.870672 0
M  V30 6 C -0.011207 2.566237 3.109788 0
M  V30 7 C 0.027365 3.646176 2.066616 0
M  V30 8 C 1.189839 3.844588 1.347499 0
M  V30 9 C 1.251858 4.647930 0.258395 0
M  V30 10 Cl 2.569960 5.028962 -0.853022 0
M  V30 11 C 0.012587 5.284198 -0.076001 0
M  V30 12 S -1.136935 4.579247 1.302068 0
M  V30 13 C -1.108799 2.026546 2.874071 0
M  V30 14 N -2.429592 1.623332 2.428730 0
M  V30 15 C -3.813456 1.366213 2.518217 0
M  V30 16 C -4.289984 0.400355 1.462508 0
M  V30 17 N -3.443496 -0.689843 1.172662 0
M  V30 18 C -3.677990 -1.276148 -0.136865 0
M  V30 19 C -5.071970 -1.568173 -0.500394 0
M  V30 20 C -5.047077 -1.996223 -1.999931 0
M  V30 21 C -3.694447 -2.354171 -2.473387 0
M  V30 22 C -2.952031 -3.216104 -1.456245 0
M  V30 23 C -2.948972 -2.654382 -0.078481 0
M  V30 24 C -2.017645 -0.248401 1.087113 0
M  V30 25 C -2.074801 1.236572 1.052711 0
M  V30 26 S -0.763890 0.569593 3.998936 0
M  V30 27 C 2.594129 -1.630079 3.293219 0
M  V30 28 C 1.614855 -2.042517 2.364520 0
M  V30 29 N 2.143851 -2.382815 1.113209 0
M  V30 30 C 3.519618 -2.254317 1.012010 0
M  V30 31 N 3.527436 -2.355724 -0.437473 0
M  V30 32 C 2.743665 -3.211600 -1.366319 0
M  V30 33 C 2.062237 -2.172268 -2.352355 0
M  V30 34 C 3.138150 -1.948747 -3.354343 0
M  V30 35 C 3.294028 -3.268372 -4.059742 0
M  V30 36 O 4.417612 -3.799506 -4.045129 0
M  V30 37 O 2.357086 -4.024091 -4.762239 0
M  V30 38 C 4.396939 -1.594409 -2.624068 0
M  V30 39 C 4.265868 -1.364702 -1.181446 0
M  V30 40 C 4.429843 -1.859606 1.959559 0
M  V30 41 Cl 6.064852 -1.894159 1.404044 0
M  V30 42 C 3.935909 -1.516894 3.218635 0
M  V30 43 H 1.319965 -0.787590 5.973305 0
M  V30 44 H 2.169140 3.361537 1.555567 0
M  V30 45 H -0.289803 5.976886 -0.859292 0
M  V30 46 H -4.043948 0.837980 3.543893 0
M  V30 47 H -4.441816 2.268665 2.506891 0
M  V30 48 H -4.622408 1.009867 0.597127 0
M  V30 49 H -5.252005 -0.066921 1.887704 0
M  V30 50 H -3.187441 -0.659483 -0.883552 0
M  V30 51 H -5.728930 -0.707132 -0.498241 0
M  V30 52 H -5.519311 -2.408117 0.063049 0
M  V30 53 H -5.429127 -1.148014 -2.643852 0
M  V30 54 H -5.751873 -2.839270 -2.166067 0
M  V30 55 H -3.055673 -1.519223 -2.790211 0
M  V30 56 H -3.763242 -2.994073 -3.348289 0
M  V30 57 H -3.332094 -4.263798 -1.512493 0
M  V30 58 H -1.912900 -3.285899 -1.814098 0
M  V30 59 H -1.958780 -2.503094 0.371320 0
M  V30 60 H -3.533723 -3.269661 0.629402 0
M  V30 61 H -1.495598 -0.639473 1.980986 0
M  V30 62 H -1.555307 -0.592678 0.152316 0
M  V30 63 H -2.775344 1.603501 0.326901 0
M  V30 64 H -1.076200 1.591997 0.696044 0
M  V30 65 H 0.549129 -2.080458 2.655080 0
M  V30 66 H 1.863348 -3.663750 -0.893237 0
M  V30 67 H 3.319344 -3.888941 -1.953321 0
M  V30 68 H 1.199177 -2.641925 -2.786345 0
M  V30 69 H 1.773777 -1.250849 -1.812012 0
M  V30 70 H 2.838329 -1.170023 -4.082081 0
M  V30 71 H 2.310389 -5.018274 -4.491328 0
M  V30 72 H 5.239927 -2.284952 -2.849763 0
M  V30 73 H 4.744093 -0.596837 -3.071768 0
M  V30 74 H 3.817161 -0.317519 -0.984625 0
M  V30 75 H 5.315095 -1.192489 -0.788588 0
M  V30 76 H 4.627919 -1.213443 3.944979 0
M  V30 END ATOM
M  V30 BEGIN BOND
M  V30 1 2 1 2
M  V30 2 1 2 3
M  V30 3 1 3 4
M  V30 4 2 4 5
M  V30 5 1 5 6
M  V30 6 1 6 7
M  V30 7 2 7 8
M  V30 8 1 8 9
M  V30 9 1 9 10
M  V30 10 2 9 11
M  V30 11 1 11 12
M  V30 12 2 6 13
M  V30 13 1 13 14
M  V30 14 1 14 15
M  V30 15 1 15 16
M  V30 16 1 16 17
M  V30 17 1 17 18
M  V30 18 1 18 19
M  V30 19 1 19 20
M  V30 20 1 20 21
M  V30 21 1 21 22
M  V30 22 1 22 23
M  V30 23 1 17 24
M  V30 24 1 24 25
M  V30 25 1 13 26
M  V30 26 1 2 27
M  V30 27 2 27 28
M  V30 28 1 28 29
M  V30 29 2 29 30
M  V30 30 1 30 31
M  V30 31 1 31 32
M  V30 32 1 32 33
M  V30 33 1 33 34
M  V30 34 1 34 35
M  V30 35 2 35 36
M  V30 36 1 35 37
M  V30 37 1 34 38
M  V30 38 1 38 39
M  V30 39 1 30 40
M  V30 40 1 40 41
M  V30 41 2 40 42
M  V30 42 1 26 4
M  V30 43 1 42 27
M  V30 44 1 12 7
M  V30 45 1 25 14
M  V30 46 1 39 31
M  V30 47 1 23 18
M  V30 48 1 3 43
M  V30 49 1 8 44
M  V30 50 1 11 45
M  V30 51 1 15 46
M  V30 52 1 15 47
M  V30 53 1 16 48
M  V30 54 1 16 49
M  V30 55 1 18 50
M  V30 56 1 19 51
M  V30 57 1 19 52
M  V30 58 1 20 53
M  V30 59 1 20 54
M  V30 60 1 21 55
M  V30 61 1 21 56
M  V30 62 1 22 57
M  V30 63 1 22 58
M  V30 64 1 23 59
M  V30 65 1 23 60
M  V30 66 1 24 61
M  V30 67 1 24 62
M  V30 68 1 25 63
M  V30 69 1 25 64
M  V30 70 1 28 65
M  V30 71 1 32 66
M  V30 72 1 32 67
M  V30 73 1 33 68
M  V30 74 1 33 69
M  V30 75 1 34 70
M  V30 76 1 37 71
M  V30 77 1 38 72
M  V30 78 1 38 73
M  V30 79 1 39 74
M  V30 80 1 39 75
M  V30 81 1 42 76
M  V30 END BOND
M  V30 END CTAB
M  END
>  <Dataset>  (79) 
OralDrugs

>  <Ligand_Instance>  (79) 
nan

>  <PDB_ID>  (79) 
nan

>  <Standardized_SMILES>  (79) 
O=C(Nc1nc(-c2cc(Cl)cs2)c(N2CCN(C3CCCCC3)CC2)s1)c1cnc(N2CCC(C(=O)O)CC2)c(Cl)c1

>  <Name>  (79) 
Avatrombopag

>  <Pocket>  (79) 
nan

>  <ATP_Site>  (79) 
nan

>  <Peripheral>  (79) 
nan

>  <Num_H_Atoms_ProtBoundConf>  (79) 
nan

>  <Num_Resolved_Atoms>  (79) 
nan

>  <Num_Not_Resolved_Atoms>  (79) 
nan

$$$$
CHEMBL1289926
     RDKit          3D

  0  0  0  0  0  0  0  0  0  0999 V3000
M  V30 BEGIN CTAB
M  V30 COUNTS 46 49 0 0 0
M  V30 BEGIN ATOM
M  V30 1 C 2.052638 0.191731 -1.326533 0
M  V30 2 N 2.536367 1.278925 -0.512884 0
M  V30 3 C 1.867821 2.323876 0.152905 0
M  V30 4 O 0.593324 2.387493 0.072788 0
M  V30 5 C 2.582619 3.352169 0.936687 0
M  V30 6 C 3.107897 4.307067 0.033191 0
M  V30 7 C 3.815353 5.270543 0.785211 0
M  V30 8 C 3.993424 5.326302 2.118341 0
M  V30 9 C 3.422824 4.322100 2.902718 0
M  V30 10 C 2.690910 3.299119 2.281542 0
M  V30 11 S 2.066558 2.113691 3.386971 0
M  V30 12 C 0.988945 0.885236 2.724305 0
M  V30 13 C 1.362458 -0.307916 2.136739 0
M  V30 14 C 0.442934 -1.254788 1.657561 0
M  V30 15 C -0.863513 -0.808902 1.865522 0
M  V30 16 C -1.927671 -1.590466 1.447723 0
M  V30 17 C -2.170753 -2.875752 0.829271 0
M  V30 18 C -3.151889 -3.574681 0.354608 0
M  V30 19 C -2.819052 -4.867703 -0.179195 0
M  V30 20 C -3.795161 -5.653036 -0.781850 0
M  V30 21 C -3.451404 -6.930658 -1.287346 0
M  V30 22 C -2.116160 -7.326239 -1.143263 0
M  V30 23 C -1.132742 -6.537436 -0.538432 0
M  V30 24 N -1.621730 -5.410969 -0.137396 0
M  V30 25 N -3.054733 -0.879572 1.773746 0
M  V30 26 N -2.670768 0.241833 2.344705 0
M  V30 27 C -1.349062 0.335145 2.426745 0
M  V30 28 C -0.366545 1.229114 2.880098 0
M  V30 29 H 1.886267 -0.734283 -0.743195 0
M  V30 30 H 2.823892 -0.107729 -2.093482 0
M  V30 31 H 1.114568 0.446847 -1.858411 0
M  V30 32 H 3.583794 1.304928 -0.385534 0
M  V30 33 H 2.993248 4.308780 -1.024668 0
M  V30 34 H 4.278216 6.073103 0.171298 0
M  V30 35 H 4.560093 6.117918 2.584322 0
M  V30 36 H 3.593008 4.411088 3.962526 0
M  V30 37 H 2.411575 -0.402056 2.098842 0
M  V30 38 H 0.776417 -2.162015 1.214273 0
M  V30 39 H -1.161982 -3.345007 0.798854 0
M  V30 40 H -4.030260 -3.008865 0.478707 0
M  V30 41 H -4.780746 -5.211802 -0.828875 0
M  V30 42 H -4.219124 -7.529311 -1.750000 0
M  V30 43 H -1.812353 -8.305242 -1.522801 0
M  V30 44 H -0.118619 -6.868072 -0.444050 0
M  V30 45 H -3.302862 0.993760 2.709526 0
M  V30 46 H -0.739724 2.125264 3.316092 0
M  V30 END ATOM
M  V30 BEGIN BOND
M  V30 1 1 1 2
M  V30 2 1 2 3
M  V30 3 2 3 4
M  V30 4 1 3 5
M  V30 5 2 5 6
M  V30 6 1 6 7
M  V30 7 2 7 8
M  V30 8 1 8 9
M  V30 9 2 9 10
M  V30 10 1 10 11
M  V30 11 1 11 12
M  V30 12 2 12 13
M  V30 13 1 13 14
M  V30 14 2 14 15
M  V30 15 1 15 16
M  V30 16 1 16 17
M  V30 17 2 17 18
M  V30 18 1 18 19
M  V30 19 2 19 20
M  V30 20 1 20 21
M  V30 21 2 21 22
M  V30 22 1 22 23
M  V30 23 2 23 24
M  V30 24 2 16 25
M  V30 25 1 25 26
M  V30 26 1 26 27
M  V30 27 2 27 28
M  V30 28 1 10 5
M  V30 29 1 28 12
M  V30 30 1 27 15
M  V30 31 1 24 19
M  V30 32 1 1 29
M  V30 33 1 1 30
M  V30 34 1 1 31
M  V30 35 1 2 32
M  V30 36 1 6 33
M  V30 37 1 7 34
M  V30 38 1 8 35
M  V30 39 1 9 36
M  V30 40 1 13 37
M  V30 41 1 14 38
M  V30 42 1 17 39
M  V30 43 1 18 40
M  V30 44 1 20 41
M  V30 45 1 21 42
M  V30 46 1 22 43
M  V30 47 1 23 44
M  V30 48 1 26 45
M  V30 49 1 28 46
M  V30 END BOND
M  V30 END CTAB
M  END
>  <Dataset>  (80) 
OralDrugs

>  <Ligand_Instance>  (80) 
nan

>  <PDB_ID>  (80) 
nan

>  <Standardized_SMILES>  (80) 
CNC(=O)c1ccccc1Sc1ccc2c(/C=C/c3ccccn3)n[nH]c2c1

>  <Name>  (80) 
Axitinib

>  <Pocket>  (80) 
nan

>  <ATP_Site>  (80) 
nan

>  <Peripheral>  (80) 
nan

>  <Num_H_Atoms_ProtBoundConf>  (80) 
nan

>  <Num_Resolved_Atoms>  (80) 
nan

>  <Num_Not_Resolved_Atoms>  (80) 
nan

$$$$
CHEMBL946
     RDKit          3D

  0  0  0  0  0  0  0  0  0  0999 V3000
M  V30 BEGIN CTAB
M  V30 COUNTS 44 47 0 0 0
M  V30 BEGIN ATOM
M  V30 1 C -1.786257 -3.102765 1.522247 0
M  V30 2 N -0.519561 -3.431396 2.108725 0
M  V30 3 C 0.517508 -3.795856 1.208562 0
M  V30 4 C 1.425636 -2.692732 0.763005 0
M  V30 5 C 0.912747 -1.396711 1.234641 0
M  V30 6 C 0.559309 -0.248255 0.655181 0
M  V30 7 C 0.683417 -0.184324 -0.829730 0
M  V30 8 C 0.172604 -1.339392 -1.394474 0
M  V30 9 C 0.262460 -1.426124 -2.741190 0
M  V30 10 C 0.839651 -0.388185 -3.460653 0
M  V30 11 C 1.344277 0.768582 -2.852194 0
M  V30 12 C 1.284952 0.925212 -1.459069 0
M  V30 13 C 1.831917 2.184701 -0.962688 0
M  V30 14 C 1.302798 2.880881 0.183752 0
M  V30 15 C 0.493416 2.230380 1.201533 0
M  V30 16 C -0.032755 3.137939 2.107096 0
M  V30 17 C -0.841592 2.653397 3.144201 0
M  V30 18 C -1.172436 1.307134 3.351402 0
M  V30 19 N -0.660681 0.455917 2.476558 0
M  V30 20 C 0.118088 0.915685 1.477441 0
M  V30 21 C 0.887471 -1.529407 2.730310 0
M  V30 22 C -0.130042 -2.527451 3.147375 0
M  V30 23 H -1.788897 -2.063728 1.149724 0
M  V30 24 H -2.520560 -3.107578 2.381368 0
M  V30 25 H -2.166026 -3.855724 0.827742 0
M  V30 26 H -0.006849 -4.208106 0.291879 0
M  V30 27 H 1.058022 -4.700128 1.601344 0
M  V30 28 H 2.420595 -2.968658 1.286277 0
M  V30 29 H 1.812634 -2.741686 -0.248874 0
M  V30 30 H -0.277760 -2.039211 -0.712892 0
M  V30 31 H -0.115067 -2.296464 -3.222794 0
M  V30 32 H 0.901063 -0.483330 -4.557563 0
M  V30 33 H 1.786830 1.557858 -3.445789 0
M  V30 34 H 1.871340 2.870727 -1.860816 0
M  V30 35 H 2.931192 1.970375 -0.792623 0
M  V30 36 H 2.139988 3.398802 0.744119 0
M  V30 37 H 0.690997 3.765433 -0.173816 0
M  V30 38 H 0.148127 4.202867 2.055796 0
M  V30 39 H -1.241267 3.406342 3.844261 0
M  V30 40 H -1.806492 1.100227 4.197081 0
M  V30 41 H 1.880569 -2.033308 3.062206 0
M  V30 42 H 1.005523 -0.633729 3.294660 0
M  V30 43 H 0.204175 -3.187098 4.005283 0
M  V30 44 H -1.023180 -2.021934 3.538984 0
M  V30 END ATOM
M  V30 BEGIN BOND
M  V30 1 1 1 2
M  V30 2 1 2 3
M  V30 3 1 3 4
M  V30 4 1 4 5
M  V30 5 2 5 6 CFG=2
M  V30 6 1 6 7
M  V30 7 2 7 8
M  V30 8 1 8 9
M  V30 9 2 9 10
M  V30 10 1 10 11
M  V30 11 2 11 12
M  V30 12 1 12 13
M  V30 13 1 13 14
M  V30 14 1 14 15
M  V30 15 2 15 16
M  V30 16 1 16 17
M  V30 17 2 17 18
M  V30 18 1 18 19
M  V30 19 2 19 20
M  V30 20 1 5 21
M  V30 21 1 21 22
M  V30 22 1 22 2
M  V30 23 1 20 6
M  V30 24 1 12 7
M  V30 25 1 20 15
M  V30 26 1 1 23
M  V30 27 1 1 24
M  V30 28 1 1 25
M  V30 29 1 3 26
M  V30 30 1 3 27
M  V30 31 1 4 28
M  V30 32 1 4 29
M  V30 33 1 8 30
M  V30 34 1 9 31
M  V30 35 1 10 32
M  V30 36 1 11 33
M  V30 37 1 13 34
M  V30 38 1 13 35
M  V30 39 1 14 36
M  V30 40 1 14 37
M  V30 41 1 16 38
M  V30 42 1 17 39
M  V30 43 1 18 40
M  V30 44 1 21 41
M  V30 45 1 21 42
M  V30 46 1 22 43
M  V30 47 1 22 44
M  V30 END BOND
M  V30 END CTAB
M  END
>  <Dataset>  (81) 
OralDrugs

>  <Ligand_Instance>  (81) 
nan

>  <PDB_ID>  (81) 
nan

>  <Standardized_SMILES>  (81) 
CN1CCC(=C2c3ccccc3CCc3cccnc32)CC1

>  <Name>  (81) 
Azatadine

>  <Pocket>  (81) 
nan

>  <ATP_Site>  (81) 
nan

>  <Peripheral>  (81) 
nan

>  <Num_H_Atoms_ProtBoundConf>  (81) 
nan

>  <Num_Resolved_Atoms>  (81) 
nan

>  <Num_Not_Resolved_Atoms>  (81) 
nan

$$$$
CHEMBL529
     RDKit          3D

  0  0  0  0  0  0  0  0  0  0999 V3000
M  V30 BEGIN CTAB
M  V30 COUNTS 124 126 0 0 0
M  V30 BEGIN ATOM
M  V30 1 C 4.814255 -2.439579 0.799148 0
M  V30 2 C 3.645059 -3.265430 1.325953 0
M  V30 3 C 2.758343 -2.443698 2.127793 0 CFG=1
M  V30 4 O 2.204112 -1.351818 1.396815 0
M  V30 5 C 2.186390 -0.089626 1.865717 0
M  V30 6 O 2.705836 0.063557 3.030348 0
M  V30 7 C 1.835597 1.309553 1.685917 0 CFG=2
M  V30 8 C 2.157738 2.024441 2.975483 0
M  V30 9 C 0.772692 1.777417 0.827602 0 CFG=1
M  V30 10 O 1.117672 1.325008 -0.461566 0
M  V30 11 C 1.658513 2.252243 -1.299700 0 CFG=1
M  V30 12 C 3.046728 2.023420 -1.785297 0
M  V30 13 C 3.209774 0.966837 -2.841875 0 CFG=1
M  V30 14 C 4.202963 1.427251 -3.912288 0
M  V30 15 O 3.741634 -0.192002 -2.312113 0
M  V30 16 C 3.945431 -1.210106 -3.211584 0
M  V30 17 C 1.869701 0.669575 -3.459685 0 CFG=1
M  V30 18 O 1.289854 -0.378330 -2.760760 0
M  V30 19 C 0.984318 1.882052 -3.517894 0 CFG=2
M  V30 20 C 1.494478 2.798577 -4.610424 0
M  V30 21 O 0.813993 2.539588 -2.356044 0
M  V30 22 C -0.634067 2.037070 1.016307 0 CFG=2
M  V30 23 C -0.942633 3.140740 2.056780 0
M  V30 24 C -1.808032 1.180123 0.940864 0 CFG=1
M  V30 25 O -2.039641 0.505731 -0.248766 0
M  V30 26 C -3.024811 0.935632 -1.067955 0 CFG=2
M  V30 27 O -3.997377 -0.035168 -1.118471 0
M  V30 28 C -4.028462 -0.903877 -2.157446 0 CFG=2
M  V30 29 C -2.775827 -1.745501 -2.179592 0
M  V30 30 C -4.212784 -0.258606 -3.514847 0
M  V30 31 C -3.954790 1.211549 -3.279577 0 CFG=2
M  V30 32 N -4.013170 2.007824 -4.440145 0
M  V30 33 C -3.113764 1.711011 -5.499928 0
M  V30 34 C -4.354939 3.379652 -4.257980 0
M  V30 35 C -2.672910 1.295202 -2.477552 0 CFG=1
M  V30 36 O -2.257957 2.609031 -2.632647 0
M  V30 37 C -2.451601 0.561878 2.162688 0 CFG=2
M  V30 38 C -3.992337 0.709913 2.145160 0
M  V30 39 O -2.100183 1.247177 3.328214 0
M  V30 40 C -2.075699 -0.856349 2.318939 0
M  V30 41 C -2.708139 -1.713067 3.322692 0 CFG=1
M  V30 42 C -4.160130 -1.984979 3.297892 0
M  V30 43 C -1.960499 -3.049653 3.493283 0
M  V30 44 N -1.686219 -3.684045 2.285349 0
M  V30 45 C -2.888120 -4.169744 1.603925 0
M  V30 46 C -0.574158 -4.501109 2.037105 0 CFG=2
M  V30 47 C -0.455469 -5.723538 2.905309 0
M  V30 48 C 0.735998 -3.826323 1.717794 0 CFG=1
M  V30 49 O 0.382002 -2.997770 0.627005 0
M  V30 50 C 1.540150 -3.214553 2.761997 0 CFG=1
M  V30 51 C 2.138010 -4.232325 3.677422 0
M  V30 52 O 0.991210 -2.206894 3.528954 0
M  V30 53 H 4.507868 -1.914740 -0.139135 0
M  V30 54 H 5.677471 -3.060429 0.548706 0
M  V30 55 H 5.016281 -1.671007 1.573067 0
M  V30 56 H 3.165469 -3.647797 0.375552 0
M  V30 57 H 4.141417 -4.108266 1.869183 0
M  V30 58 H 3.255487 -2.011836 3.009605 0
M  V30 59 H 2.787008 1.601185 1.091906 0
M  V30 60 H 1.865343 3.064754 3.028242 0
M  V30 61 H 1.710421 1.511376 3.879021 0
M  V30 62 H 3.237719 2.026562 3.242442 0
M  V30 63 H 1.100178 2.899849 0.702943 0
M  V30 64 H 1.731545 3.249551 -0.763352 0
M  V30 65 H 3.353639 2.993337 -2.286005 0
M  V30 66 H 3.806163 1.852158 -1.031642 0
M  V30 67 H 3.984316 0.863872 -4.818820 0
M  V30 68 H 5.237478 1.175522 -3.533534 0
M  V30 69 H 4.139762 2.531913 -4.050574 0
M  V30 70 H 3.044284 -1.550505 -3.714996 0
M  V30 71 H 4.363893 -2.066311 -2.641204 0
M  V30 72 H 4.737495 -0.925968 -3.937891 0
M  V30 73 H 2.043526 0.326847 -4.496602 0
M  V30 74 H 0.576334 -0.766305 -3.331012 0
M  V30 75 H -0.008641 1.514132 -3.892263 0
M  V30 76 H 2.043164 3.682491 -4.224879 0
M  V30 77 H 2.136297 2.288429 -5.347130 0
M  V30 78 H 0.642307 3.213767 -5.213908 0
M  V30 79 H -0.819920 2.687503 0.069290 0
M  V30 80 H -0.442489 4.114124 1.766267 0
M  V30 81 H -0.530133 2.946210 3.039307 0
M  V30 82 H -2.018075 3.364299 2.008678 0
M  V30 83 H -2.665028 1.990406 0.775744 0
M  V30 84 H -3.569479 1.846402 -0.671055 0
M  V30 85 H -4.932597 -1.573759 -2.034109 0
M  V30 86 H -2.005058 -1.396073 -1.501877 0
M  V30 87 H -3.026988 -2.809841 -1.945670 0
M  V30 88 H -2.359136 -1.755386 -3.207554 0
M  V30 89 H -3.455538 -0.587149 -4.257190 0
M  V30 90 H -5.248306 -0.378506 -3.829051 0
M  V30 91 H -4.777029 1.551279 -2.592635 0
M  V30 92 H -3.699448 1.119997 -6.264174 0
M  V30 93 H -2.276866 1.038110 -5.223920 0
M  V30 94 H -2.773031 2.622148 -6.064154 0
M  V30 95 H -4.225606 3.727066 -3.206566 0
M  V30 96 H -5.454806 3.541114 -4.458720 0
M  V30 97 H -3.842592 4.070476 -4.951089 0
M  V30 98 H -1.934550 0.571790 -2.858456 0
M  V30 99 H -2.021574 2.766507 -3.577333 0
M  V30 100 H -4.148659 1.689336 1.597755 0
M  V30 101 H -4.490278 -0.055177 1.572176 0
M  V30 102 H -4.399139 0.950396 3.144603 0
M  V30 103 H -1.650722 0.668670 3.961804 0
M  V30 104 H -2.052183 -1.306430 1.281744 0
M  V30 105 H -0.998681 -0.774932 2.563863 0
M  V30 106 H -2.563116 -1.236068 4.353497 0
M  V30 107 H -4.306816 -2.912117 3.945613 0
M  V30 108 H -4.594478 -2.310402 2.339631 0
M  V30 109 H -4.807646 -1.255167 3.834263 0
M  V30 110 H -2.755107 -3.754624 4.006450 0
M  V30 111 H -1.226917 -3.035518 4.305596 0
M  V30 112 H -3.235195 -3.505034 0.799933 0
M  V30 113 H -3.630401 -4.503980 2.324127 0
M  V30 114 H -2.577422 -5.112435 1.054058 0
M  V30 115 H -0.816737 -4.999056 1.023268 0
M  V30 116 H 0.381304 -6.325025 2.499503 0
M  V30 117 H -0.303424 -5.569674 3.960538 0
M  V30 118 H -1.359822 -6.370664 2.684792 0
M  V30 119 H 1.357496 -4.629253 1.179403 0
M  V30 120 H -0.271515 -3.421464 0.050610 0
M  V30 121 H 1.603424 -4.344428 4.647565 0
M  V30 122 H 2.365133 -5.197163 3.176625 0
M  V30 123 H 3.156814 -3.849395 3.996662 0
M  V30 124 H 1.234907 -2.208077 4.476380 0
M  V30 END ATOM
M  V30 BEGIN BOND
M  V30 1 1 1 2
M  V30 2 1 2 3
M  V30 3 1 3 4
M  V30 4 1 4 5
M  V30 5 2 5 6
M  V30 6 1 5 7
M  V30 7 1 7 8
M  V30 8 1 7 9
M  V30 9 1 9 10
M  V30 10 1 10 11
M  V30 11 1 11 12
M  V30 12 1 12 13
M  V30 13 1 13 14
M  V30 14 1 13 15 CFG=1
M  V30 15 1 15 16
M  V30 16 1 13 17
M  V30 17 1 17 18
M  V30 18 1 17 19
M  V30 19 1 19 20
M  V30 20 1 19 21
M  V30 21 1 9 22
M  V30 22 1 22 23
M  V30 23 1 22 24
M  V30 24 1 24 25
M  V30 25 1 25 26
M  V30 26 1 26 27
M  V30 27 1 27 28
M  V30 28 1 28 29
M  V30 29 1 28 30
M  V30 30 1 30 31
M  V30 31 1 31 32
M  V30 32 1 32 33
M  V30 33 1 32 34
M  V30 34 1 31 35
M  V30 35 1 35 36
M  V30 36 1 24 37
M  V30 37 1 37 38
M  V30 38 1 37 39 CFG=1
M  V30 39 1 37 40
M  V30 40 1 40 41
M  V30 41 1 41 42
M  V30 42 1 41 43
M  V30 43 1 43 44
M  V30 44 1 44 45
M  V30 45 1 44 46
M  V30 46 1 46 47
M  V30 47 1 46 48
M  V30 48 1 48 49
M  V30 49 1 48 50
M  V30 50 1 50 51
M  V30 51 1 50 52 CFG=1
M  V30 52 1 50 3
M  V30 53 1 21 11
M  V30 54 1 35 26
M  V30 55 1 1 53
M  V30 56 1 1 54
M  V30 57 1 1 55
M  V30 58 1 2 56
M  V30 59 1 2 57
M  V30 60 1 3 58 CFG=1
M  V30 61 1 7 59 CFG=3
M  V30 62 1 8 60
M  V30 63 1 8 61
M  V30 64 1 8 62
M  V30 65 1 9 63 CFG=3
M  V30 66 1 11 64 CFG=1
M  V30 67 1 12 65
M  V30 68 1 12 66
M  V30 69 1 14 67
M  V30 70 1 14 68
M  V30 71 1 14 69
M  V30 72 1 16 70
M  V30 73 1 16 71
M  V30 74 1 16 72
M  V30 75 1 17 73 CFG=3
M  V30 76 1 18 74
M  V30 77 1 19 75 CFG=3
M  V30 78 1 20 76
M  V30 79 1 20 77
M  V30 80 1 20 78
M  V30 81 1 22 79 CFG=3
M  V30 82 1 23 80
M  V30 83 1 23 81
M  V30 84 1 23 82
M  V30 85 1 24 83 CFG=3
M  V30 86 1 26 84 CFG=1
M  V30 87 1 28 85 CFG=1
M  V30 88 1 29 86
M  V30 89 1 29 87
M  V30 90 1 29 88
M  V30 91 1 30 89
M  V30 92 1 30 90
M  V30 93 1 31 91 CFG=1
M  V30 94 1 33 92
M  V30 95 1 33 93
M  V30 96 1 33 94
M  V30 97 1 34 95
M  V30 98 1 34 96
M  V30 99 1 34 97
M  V30 100 1 35 98 CFG=3
M  V30 101 1 36 99
M  V30 102 1 38 100
M  V30 103 1 38 101
M  V30 104 1 38 102
M  V30 105 1 39 103
M  V30 106 1 40 104
M  V30 107 1 40 105
M  V30 108 1 41 106 CFG=1
M  V30 109 1 42 107
M  V30 110 1 42 108
M  V30 111 1 42 109
M  V30 112 1 43 110
M  V30 113 1 43 111
M  V30 114 1 45 112
M  V30 115 1 45 113
M  V30 116 1 45 114
M  V30 117 1 46 115 CFG=3
M  V30 118 1 47 116
M  V30 119 1 47 117
M  V30 120 1 47 118
M  V30 121 1 48 119 CFG=3
M  V30 122 1 49 120
M  V30 123 1 51 121
M  V30 124 1 51 122
M  V30 125 1 51 123
M  V30 126 1 52 124
M  V30 END BOND
M  V30 END CTAB
M  END
>  <Dataset>  (82) 
OralDrugs

>  <Ligand_Instance>  (82) 
nan

>  <PDB_ID>  (82) 
nan

>  <Standardized_SMILES>  (82) 
CC[C@H]1OC(=O)[C@H](C)[C@@H](O[C@H]2C[C@@](C)(OC)[C@@H](O)[C@H](C)O2)[C@H](C)[C@@H](O[C@@H]2O[C@H](C)C[C@H](N(C)C)[C@H]2O)[C@](C)(O)C[C@@H](C)CN(C)[C@H](C)[C@@H](O)[C@]1(C)O

>  <Name>  (82) 
Azithromycin

>  <Pocket>  (82) 
nan

>  <ATP_Site>  (82) 
nan

>  <Peripheral>  (82) 
nan

>  <Num_H_Atoms_ProtBoundConf>  (82) 
nan

>  <Num_Resolved_Atoms>  (82) 
nan

>  <Num_Not_Resolved_Atoms>  (82) 
nan

$$$$
CHEMBL701
     RDKit          3D

  0  0  0  0  0  0  0  0  0  0999 V3000
M  V30 BEGIN CTAB
M  V30 COUNTS 26 26 0 0 0
M  V30 BEGIN ATOM
M  V30 1 N -0.832076 0.065823 2.754014 0
M  V30 2 C -0.844630 -1.203406 2.057611 0
M  V30 3 C 0.168657 -1.240667 0.952891 0
M  V30 4 C 1.587600 -1.029161 1.417554 0
M  V30 5 C 2.056115 -2.032342 2.367664 0
M  V30 6 O 1.762013 -3.141793 1.790492 0
M  V30 7 O 2.671932 -2.207643 3.594580 0
M  V30 8 C -0.113801 -0.222016 -0.086509 0
M  V30 9 C -0.443511 -0.675882 -1.353214 0
M  V30 10 C -0.724946 0.192112 -2.404160 0
M  V30 11 C -0.682053 1.571543 -2.201181 0
M  V30 12 Cl -1.051598 2.648242 -3.535018 0
M  V30 13 C -0.351619 2.000288 -0.923711 0
M  V30 14 C -0.068380 1.148164 0.122173 0
M  V30 15 H -1.458255 0.000955 3.599922 0
M  V30 16 H 0.123434 0.267709 3.144166 0
M  V30 17 H -1.845217 -1.245198 1.545176 0
M  V30 18 H -0.793814 -2.086709 2.696851 0
M  V30 19 H 0.066678 -2.238035 0.461231 0
M  V30 20 H 1.664290 -0.010745 1.834858 0
M  V30 21 H 2.206690 -1.013599 0.466549 0
M  V30 22 H 2.308165 -3.011834 4.157058 0
M  V30 23 H -0.514198 -1.719451 -1.661645 0
M  V30 24 H -0.988154 -0.139059 -3.406716 0
M  V30 25 H -0.317401 3.074992 -0.766641 0
M  V30 26 H 0.190037 1.510785 1.094151 0
M  V30 END ATOM
M  V30 BEGIN BOND
M  V30 1 1 1 2
M  V30 2 1 2 3
M  V30 3 1 3 4
M  V30 4 1 4 5
M  V30 5 2 5 6
M  V30 6 1 5 7
M  V30 7 1 3 8
M  V30 8 2 8 9
M  V30 9 1 9 10
M  V30 10 2 10 11
M  V30 11 1 11 12
M  V30 12 1 11 13
M  V30 13 2 13 14
M  V30 14 1 14 8
M  V30 15 1 1 15
M  V30 16 1 1 16
M  V30 17 1 2 17
M  V30 18 1 2 18
M  V30 19 1 3 19
M  V30 20 1 4 20
M  V30 21 1 4 21
M  V30 22 1 7 22
M  V30 23 1 9 23
M  V30 24 1 10 24
M  V30 25 1 13 25
M  V30 26 1 14 26
M  V30 END BOND
M  V30 END CTAB
M  END
>  <Dataset>  (83) 
OralDrugs

>  <Ligand_Instance>  (83) 
nan

>  <PDB_ID>  (83) 
nan

>  <Standardized_SMILES>  (83) 
NCC(CC(=O)O)c1ccc(Cl)cc1

>  <Name>  (83) 
Baclofen

>  <Pocket>  (83) 
nan

>  <ATP_Site>  (83) 
nan

>  <Peripheral>  (83) 
nan

>  <Num_H_Atoms_ProtBoundConf>  (83) 
nan

>  <Num_Resolved_Atoms>  (83) 
nan

>  <Num_Not_Resolved_Atoms>  (83) 
nan

$$$$
CHEMBL2105759
     RDKit          3D

  0  0  0  0  0  0  0  0  0  0999 V3000
M  V30 BEGIN CTAB
M  V30 COUNTS 43 46 0 0 0
M  V30 BEGIN ATOM
M  V30 1 C 0.199708 -5.183415 1.328017 0
M  V30 2 C 0.214952 -4.322446 0.059440 0
M  V30 3 S 1.704596 -3.416024 0.015751 0
M  V30 4 O 2.835633 -4.435358 -0.038645 0
M  V30 5 O 1.888712 -2.654899 1.297554 0
M  V30 6 N 1.890554 -2.399911 -1.333810 0
M  V30 7 C 0.942164 -1.348821 -1.519290 0
M  V30 8 C 1.933515 -0.310016 -1.082989 0
M  V30 9 C 2.036800 0.853584 -2.018050 0
M  V30 10 C 2.442142 0.512925 -3.360331 0
M  V30 11 N 2.755042 0.232317 -4.435004 0
M  V30 12 N 1.794889 0.164786 0.281152 0
M  V30 13 C 0.565781 0.286509 0.818667 0
M  V30 14 C 0.677260 0.757082 2.131471 0
M  V30 15 C -0.378531 1.044621 3.110468 0
M  V30 16 N -0.257449 0.630631 4.386543 0
M  V30 17 C -1.182176 0.857799 5.334030 0
M  V30 18 N -2.288323 1.541904 4.964758 0
M  V30 19 C -2.478937 1.986189 3.711760 0
M  V30 20 N -3.492818 2.678964 3.133724 0
M  V30 21 C -3.177371 2.870701 1.829443 0
M  V30 22 C -1.941537 2.298104 1.543439 0
M  V30 23 C -1.515361 1.748481 2.728110 0
M  V30 24 C 2.055596 0.904521 2.331427 0
M  V30 25 N 2.682738 0.535622 1.189836 0
M  V30 26 C 2.929897 -1.421407 -1.270993 0
M  V30 27 H 0.517773 -6.219062 1.125721 0
M  V30 28 H 0.906475 -4.771723 2.078300 0
M  V30 29 H -0.799265 -5.192916 1.779899 0
M  V30 30 H -0.702673 -3.715041 0.052939 0
M  V30 31 H 0.130027 -5.057826 -0.766892 0
M  V30 32 H 0.031195 -1.329631 -0.939770 0
M  V30 33 H 0.704593 -1.236269 -2.607225 0
M  V30 34 H 1.016786 1.319346 -2.082962 0
M  V30 35 H 2.677118 1.640730 -1.540549 0
M  V30 36 H -0.425713 0.098783 0.443957 0
M  V30 37 H -1.054727 0.512202 6.348616 0
M  V30 38 H -4.386045 3.028244 3.575753 0
M  V30 39 H -3.728624 3.378868 1.036003 0
M  V30 40 H -1.417158 2.278476 0.608260 0
M  V30 41 H 2.542816 1.250145 3.231860 0
M  V30 42 H 3.607932 -1.474805 -0.388045 0
M  V30 43 H 3.516981 -1.301346 -2.203554 0
M  V30 END ATOM
M  V30 BEGIN BOND
M  V30 1 1 1 2
M  V30 2 1 2 3
M  V30 3 2 3 4
M  V30 4 2 3 5
M  V30 5 1 3 6
M  V30 6 1 6 7
M  V30 7 1 7 8
M  V30 8 1 8 9
M  V30 9 1 9 10
M  V30 10 3 10 11
M  V30 11 1 8 12
M  V30 12 1 12 13
M  V30 13 2 13 14
M  V30 14 1 14 15
M  V30 15 2 15 16
M  V30 16 1 16 17
M  V30 17 2 17 18
M  V30 18 1 18 19
M  V30 19 1 19 20
M  V30 20 1 20 21
M  V30 21 2 21 22
M  V30 22 1 22 23
M  V30 23 1 14 24
M  V30 24 2 24 25
M  V30 25 1 8 26
M  V30 26 1 26 6
M  V30 27 1 25 12
M  V30 28 1 23 15
M  V30 29 2 23 19
M  V30 30 1 1 27
M  V30 31 1 1 28
M  V30 32 1 1 29
M  V30 33 1 2 30
M  V30 34 1 2 31
M  V30 35 1 7 32
M  V30 36 1 7 33
M  V30 37 1 9 34
M  V30 38 1 9 35
M  V30 39 1 13 36
M  V30 40 1 17 37
M  V30 41 1 20 38
M  V30 42 1 21 39
M  V30 43 1 22 40
M  V30 44 1 24 41
M  V30 45 1 26 42
M  V30 46 1 26 43
M  V30 END BOND
M  V30 END CTAB
M  END
>  <Dataset>  (84) 
OralDrugs

>  <Ligand_Instance>  (84) 
nan

>  <PDB_ID>  (84) 
nan

>  <Standardized_SMILES>  (84) 
CCS(=O)(=O)N1CC(CC#N)(n2cc(-c3ncnc4[nH]ccc34)cn2)C1

>  <Name>  (84) 
Baricitinib

>  <Pocket>  (84) 
nan

>  <ATP_Site>  (84) 
nan

>  <Peripheral>  (84) 
nan

>  <Num_H_Atoms_ProtBoundConf>  (84) 
nan

>  <Num_Resolved_Atoms>  (84) 
nan

>  <Num_Not_Resolved_Atoms>  (84) 
nan

$$$$
CHEMBL46740
     RDKit          3D

  0  0  0  0  0  0  0  0  0  0999 V3000
M  V30 BEGIN CTAB
M  V30 COUNTS 69 73 0 0 0
M  V30 BEGIN ATOM
M  V30 1 C 3.651869 3.010148 3.761599 0
M  V30 2 C 2.763971 2.979521 2.568685 0
M  V30 3 C 2.625222 2.026021 1.554246 0
M  V30 4 C 3.446825 0.848874 1.628289 0
M  V30 5 C 3.484958 0.180071 2.860062 0
M  V30 6 C 4.236643 -0.970623 3.104851 0
M  V30 7 C 4.990173 -1.482628 2.070519 0
M  V30 8 O 5.762889 -2.624835 2.242174 0
M  V30 9 C 4.987854 -0.863670 0.841549 0
M  V30 10 C 4.221940 0.266500 0.677072 0
M  V30 11 N 1.680341 2.504608 0.730970 0
M  V30 12 C 1.224410 1.828900 -0.430536 0
M  V30 13 C 0.060941 0.930042 -0.146070 0
M  V30 14 C 0.374267 -0.341795 0.290922 0
M  V30 15 C -0.629344 -1.242662 0.575905 0
M  V30 16 C -1.966506 -0.937233 0.444928 0
M  V30 17 O -3.119398 -1.613956 0.650471 0
M  V30 18 C -3.401364 -2.884132 1.074222 0
M  V30 19 C -2.954064 -4.056997 0.310266 0
M  V30 20 N -3.404891 -4.229240 -1.002883 0
M  V30 21 C -2.997374 -3.393122 -2.035559 0
M  V30 22 C -2.451369 -4.114956 -3.261224 0
M  V30 23 C -3.498545 -5.050480 -3.761291 0
M  V30 24 C -3.354725 -6.338359 -2.972369 0
M  V30 25 C -4.297929 -6.380447 -1.796006 0
M  V30 26 C -4.557071 -5.030843 -1.200570 0
M  V30 27 C -2.262795 0.359001 -0.000097 0
M  V30 28 C -1.261120 1.291854 -0.295148 0
M  V30 29 C 1.222571 3.708915 1.178646 0
M  V30 30 C 0.267824 4.578119 0.681491 0
M  V30 31 C -0.032855 5.762911 1.320768 0
M  V30 32 C 0.644924 6.072113 2.481503 0
M  V30 33 O 0.393723 7.260941 3.189470 0
M  V30 34 C 1.602486 5.225710 3.001421 0
M  V30 35 C 1.887691 4.045776 2.346511 0
M  V30 36 H 3.136479 2.717151 4.681622 0
M  V30 37 H 4.495353 2.330281 3.546929 0
M  V30 38 H 4.044477 4.052611 3.904190 0
M  V30 39 H 2.909620 0.539157 3.711017 0
M  V30 40 H 4.220033 -1.435124 4.080449 0
M  V30 41 H 5.838948 -3.281402 1.451994 0
M  V30 42 H 5.577850 -1.258473 0.019230 0
M  V30 43 H 4.252249 0.725509 -0.288303 0
M  V30 44 H 0.887079 2.506263 -1.244872 0
M  V30 45 H 2.036010 1.217557 -0.856468 0
M  V30 46 H 1.356849 -0.767773 0.453469 0
M  V30 47 H -0.475798 -2.237515 0.921586 0
M  V30 48 H -4.493055 -2.904710 1.337126 0
M  V30 49 H -2.919532 -2.983305 2.106677 0
M  V30 50 H -1.822002 -4.054712 0.275565 0
M  V30 51 H -3.154256 -4.972468 0.957229 0
M  V30 52 H -3.876675 -2.800323 -2.409299 0
M  V30 53 H -2.227136 -2.678443 -1.760796 0
M  V30 54 H -1.563611 -4.693491 -2.876389 0
M  V30 55 H -2.142101 -3.345005 -3.990224 0
M  V30 56 H -4.526465 -4.695792 -3.706647 0
M  V30 57 H -3.226839 -5.285803 -4.831966 0
M  V30 58 H -3.611367 -7.168359 -3.660466 0
M  V30 59 H -2.297260 -6.513119 -2.684774 0
M  V30 60 H -5.260586 -6.773229 -2.176882 0
M  V30 61 H -3.894702 -7.122546 -1.089488 0
M  V30 62 H -5.275189 -4.489954 -1.834634 0
M  V30 63 H -5.083458 -5.198470 -0.226045 0
M  V30 64 H -3.251810 0.807067 -0.170145 0
M  V30 65 H -1.443738 2.298829 -0.640555 0
M  V30 66 H -0.256378 4.341337 -0.215405 0
M  V30 67 H -0.782154 6.456213 0.944080 0
M  V30 68 H 0.959739 8.073434 2.978579 0
M  V30 69 H 2.136092 5.464783 3.913155 0
M  V30 END ATOM
M  V30 BEGIN BOND
M  V30 1 1 1 2
M  V30 2 2 2 3
M  V30 3 1 3 4
M  V30 4 2 4 5
M  V30 5 1 5 6
M  V30 6 2 6 7
M  V30 7 1 7 8
M  V30 8 1 7 9
M  V30 9 2 9 10
M  V30 10 1 3 11
M  V30 11 1 11 12
M  V30 12 1 12 13
M  V30 13 2 13 14
M  V30 14 1 14 15
M  V30 15 2 15 16
M  V30 16 1 16 17
M  V30 17 1 17 18
M  V30 18 1 18 19
M  V30 19 1 19 20
M  V30 20 1 20 21
M  V30 21 1 21 22
M  V30 22 1 22 23
M  V30 23 1 23 24
M  V30 24 1 24 25
M  V30 25 1 25 26
M  V30 26 1 16 27
M  V30 27 2 27 28
M  V30 28 1 11 29
M  V30 29 2 29 30
M  V30 30 1 30 31
M  V30 31 2 31 32
M  V30 32 1 32 33
M  V30 33 1 32 34
M  V30 34 2 34 35
M  V30 35 1 35 2
M  V30 36 1 10 4
M  V30 37 1 28 13
M  V30 38 1 35 29
M  V30 39 1 26 20
M  V30 40 1 1 36
M  V30 41 1 1 37
M  V30 42 1 1 38
M  V30 43 1 5 39
M  V30 44 1 6 40
M  V30 45 1 8 41
M  V30 46 1 9 42
M  V30 47 1 10 43
M  V30 48 1 12 44
M  V30 49 1 12 45
M  V30 50 1 14 46
M  V30 51 1 15 47
M  V30 52 1 18 48
M  V30 53 1 18 49
M  V30 54 1 19 50
M  V30 55 1 19 51
M  V30 56 1 21 52
M  V30 57 1 21 53
M  V30 58 1 22 54
M  V30 59 1 22 55
M  V30 60 1 23 56
M  V30 61 1 23 57
M  V30 62 1 24 58
M  V30 63 1 24 59
M  V30 64 1 25 60
M  V30 65 1 25 61
M  V30 66 1 26 62
M  V30 67 1 26 63
M  V30 68 1 27 64
M  V30 69 1 28 65
M  V30 70 1 30 66
M  V30 71 1 31 67
M  V30 72 1 33 68
M  V30 73 1 34 69
M  V30 END BOND
M  V30 END CTAB
M  END
>  <Dataset>  (85) 
OralDrugs

>  <Ligand_Instance>  (85) 
nan

>  <PDB_ID>  (85) 
nan

>  <Standardized_SMILES>  (85) 
Cc1c(-c2ccc(O)cc2)n(Cc2ccc(OCCN3CCCCCC3)cc2)c2ccc(O)cc12

>  <Name>  (85) 
Bazedoxifene

>  <Pocket>  (85) 
nan

>  <ATP_Site>  (85) 
nan

>  <Peripheral>  (85) 
nan

>  <Num_H_Atoms_ProtBoundConf>  (85) 
nan

>  <Num_Resolved_Atoms>  (85) 
nan

>  <Num_Not_Resolved_Atoms>  (85) 
nan

$$$$
CHEMBL376488
     RDKit          3D

  0  0  0  0  0  0  0  0  0  0999 V3000
M  V30 BEGIN CTAB
M  V30 COUNTS 68 72 0 0 0
M  V30 BEGIN ATOM
M  V30 1 C -0.449250 -1.581437 5.340556 0
M  V30 2 O -0.416553 -1.341111 3.955062 0
M  V30 3 C 0.547333 -0.466775 3.456912 0
M  V30 4 N 1.395682 0.098326 4.346913 0
M  V30 5 C 2.352174 0.948647 3.964919 0
M  V30 6 C 3.222450 1.531215 4.862339 0
M  V30 7 C 4.210197 2.417107 4.416217 0
M  V30 8 C 4.295463 2.697569 3.047934 0
M  V30 9 Br 5.643268 3.907612 2.430608 0
M  V30 10 C 3.433185 2.127361 2.113065 0
M  V30 11 C 2.497820 1.272996 2.636266 0
M  V30 12 C 1.618712 0.678341 1.769200 0
M  V30 13 C 0.604812 -0.203805 2.057480 0
M  V30 14 C -0.404450 -0.945724 1.321324 0 CFG=1
M  V30 15 C -1.748068 -0.694224 1.747135 0
M  V30 16 C -2.454863 0.464745 2.083850 0
M  V30 17 C -3.745054 0.639180 2.505044 0
M  V30 18 C -4.519523 -0.482821 2.637464 0
M  V30 19 C -3.987540 -1.714221 2.350623 0
M  V30 20 C -2.678617 -1.740742 1.937787 0
M  V30 21 C -0.094354 -1.161787 -0.185590 0 CFG=1
M  V30 22 O 1.131672 -1.841909 0.069669 0
M  V30 23 C -1.100910 -2.142557 -0.648826 0
M  V30 24 C -1.218798 -2.634358 -2.016782 0
M  V30 25 N -2.401367 -3.553824 -2.008990 0
M  V30 26 C -2.506956 -4.034962 -3.373570 0
M  V30 27 C -1.969783 -4.702236 -1.203810 0
M  V30 28 C 0.058393 0.039189 -0.962252 0
M  V30 29 C -0.432531 1.322533 -0.836787 0
M  V30 30 C -0.361309 2.397134 -1.681897 0
M  V30 31 C 0.306065 2.209324 -2.871063 0
M  V30 32 C 0.848808 0.959767 -3.113227 0
M  V30 33 C 1.529408 0.880596 -4.305554 0
M  V30 34 C 2.155831 -0.293415 -4.652129 0
M  V30 35 C 2.074926 -1.355151 -3.777849 0
M  V30 36 C 1.378575 -1.192742 -2.615677 0
M  V30 37 C 0.722101 -0.058025 -2.194970 0
M  V30 38 H -1.209477 -2.297697 5.644886 0
M  V30 39 H 0.529708 -1.968766 5.714316 0
M  V30 40 H -0.624604 -0.631309 5.916183 0
M  V30 41 H 3.128145 1.291994 5.913089 0
M  V30 42 H 4.893001 2.874995 5.114877 0
M  V30 43 H 3.511466 2.353931 1.058672 0
M  V30 44 H 1.699624 0.872074 0.735407 0
M  V30 45 H -0.220822 -2.048532 1.690532 0
M  V30 46 H -1.879925 1.380892 2.035514 0
M  V30 47 H -4.126782 1.624357 2.721164 0
M  V30 48 H -5.535462 -0.373574 2.965806 0
M  V30 49 H -4.615026 -2.579958 2.462777 0
M  V30 50 H -2.361218 -2.783708 1.764444 0
M  V30 51 H 1.668258 -1.506400 0.772747 0
M  V30 52 H -1.025409 -3.099620 -0.012532 0
M  V30 53 H -2.132682 -1.760316 -0.377826 0
M  V30 54 H -0.427511 -3.374043 -2.359564 0
M  V30 55 H -1.400385 -1.957870 -2.835375 0
M  V30 56 H -2.416309 -3.189460 -4.093819 0
M  V30 57 H -1.690526 -4.740453 -3.640363 0
M  V30 58 H -3.469714 -4.560534 -3.541135 0
M  V30 59 H -0.849969 -4.786671 -1.206066 0
M  V30 60 H -2.348680 -5.631146 -1.686258 0
M  V30 61 H -2.372877 -4.693726 -0.189574 0
M  V30 62 H -0.947074 1.531421 0.059927 0
M  V30 63 H -0.801639 3.350610 -1.442188 0
M  V30 64 H 0.379494 3.027287 -3.556401 0
M  V30 65 H 1.597483 1.704733 -4.991547 0
M  V30 66 H 2.686135 -0.344403 -5.590204 0
M  V30 67 H 2.579842 -2.246434 -4.091475 0
M  V30 68 H 1.428765 -2.068359 -2.022641 0
M  V30 END ATOM
M  V30 BEGIN BOND
M  V30 1 1 1 2
M  V30 2 1 2 3
M  V30 3 2 3 4
M  V30 4 1 4 5
M  V30 5 2 5 6
M  V30 6 1 6 7
M  V30 7 2 7 8
M  V30 8 1 8 9
M  V30 9 1 8 10
M  V30 10 2 10 11
M  V30 11 1 11 12
M  V30 12 2 12 13
M  V30 13 1 13 14
M  V30 14 1 14 15
M  V30 15 2 15 16
M  V30 16 1 16 17
M  V30 17 2 17 18
M  V30 18 1 18 19
M  V30 19 2 19 20
M  V30 20 1 14 21
M  V30 21 1 21 22 CFG=1
M  V30 22 1 21 23
M  V30 23 1 23 24
M  V30 24 1 24 25
M  V30 25 1 25 26
M  V30 26 1 25 27
M  V30 27 1 21 28
M  V30 28 2 28 29
M  V30 29 1 29 30
M  V30 30 2 30 31
M  V30 31 1 31 32
M  V30 32 2 32 33
M  V30 33 1 33 34
M  V30 34 2 34 35
M  V30 35 1 35 36
M  V30 36 2 36 37
M  V30 37 1 13 3
M  V30 38 1 20 15
M  V30 39 1 37 28
M  V30 40 1 11 5
M  V30 41 1 37 32
M  V30 42 1 1 38
M  V30 43 1 1 39
M  V30 44 1 1 40
M  V30 45 1 6 41
M  V30 46 1 7 42
M  V30 47 1 10 43
M  V30 48 1 12 44
M  V30 49 1 14 45 CFG=1
M  V30 50 1 16 46
M  V30 51 1 17 47
M  V30 52 1 18 48
M  V30 53 1 19 49
M  V30 54 1 20 50
M  V30 55 1 22 51
M  V30 56 1 23 52
M  V30 57 1 23 53
M  V30 58 1 24 54
M  V30 59 1 24 55
M  V30 60 1 26 56
M  V30 61 1 26 57
M  V30 62 1 26 58
M  V30 63 1 27 59
M  V30 64 1 27 60
M  V30 65 1 27 61
M  V30 66 1 29 62
M  V30 67 1 30 63
M  V30 68 1 31 64
M  V30 69 1 33 65
M  V30 70 1 34 66
M  V30 71 1 35 67
M  V30 72 1 36 68
M  V30 END BOND
M  V30 END CTAB
M  END
>  <Dataset>  (86) 
OralDrugs

>  <Ligand_Instance>  (86) 
nan

>  <PDB_ID>  (86) 
nan

>  <Standardized_SMILES>  (86) 
COc1nc2ccc(Br)cc2cc1[C@@H](c1ccccc1)[C@@](O)(CCN(C)C)c1cccc2ccccc12

>  <Name>  (86) 
Bedaquiline

>  <Pocket>  (86) 
nan

>  <ATP_Site>  (86) 
nan

>  <Peripheral>  (86) 
nan

>  <Num_H_Atoms_ProtBoundConf>  (86) 
nan

>  <Num_Resolved_Atoms>  (86) 
nan

>  <Num_Not_Resolved_Atoms>  (86) 
nan

$$$$
CHEMBL2005186
     RDKit          3D

  0  0  0  0  0  0  0  0  0  0999 V3000
M  V30 BEGIN CTAB
M  V30 COUNTS 58 62 0 0 0
M  V30 BEGIN ATOM
M  V30 1 C 5.596001 -0.190857 1.517521 0
M  V30 2 C 5.097041 0.663766 2.659218 0
M  V30 3 C 6.277402 1.008755 3.535495 0
M  V30 4 N 4.410479 1.809907 2.143623 0
M  V30 5 C 3.047127 2.181183 2.416095 0
M  V30 6 O 2.595895 1.300082 3.189671 0
M  V30 7 C 2.695672 3.449437 1.688399 0
M  V30 8 O 1.353468 3.755470 1.995800 0
M  V30 9 C 0.368356 2.855940 1.638855 0
M  V30 10 C -0.886756 3.328275 2.035750 0
M  V30 11 C -2.031006 2.566518 1.769284 0
M  V30 12 C -1.838821 1.366432 1.114094 0
M  V30 13 C -0.609645 0.889323 0.717510 0
M  V30 14 C -0.423929 -0.379380 0.027222 0
M  V30 15 N -1.420502 -1.205875 -0.296862 0
M  V30 16 C -1.349845 -2.367230 -0.916201 0
M  V30 17 N -2.421997 -3.219873 -1.249853 0
M  V30 18 C -3.805259 -3.020358 -1.037516 0
M  V30 19 C -4.323056 -1.843903 -0.547318 0
M  V30 20 C -5.643085 -1.591169 -0.317028 0
M  V30 21 C -6.586049 -2.573195 -0.584150 0
M  V30 22 N -7.921462 -2.668220 -0.481706 0
M  V30 23 N -8.309178 -3.884415 -0.893204 0
M  V30 24 C -7.217400 -4.578211 -1.263389 0
M  V30 25 C -6.119037 -3.769636 -1.076554 0
M  V30 26 C -4.781495 -3.959904 -1.285494 0
M  V30 27 C -0.072453 -2.747516 -1.258832 0
M  V30 28 C 0.261648 -3.902811 -1.905901 0
M  V30 29 C 1.521078 -4.296446 -2.254776 0
M  V30 30 C 2.593258 -3.463357 -1.935398 0
M  V30 31 C 2.320589 -2.282751 -1.281932 0
M  V30 32 C 1.021233 -1.956734 -0.964303 0
M  V30 33 N 0.811940 -0.783666 -0.323311 0
M  V30 34 C 0.488816 1.666097 0.997340 0
M  V30 35 H 6.673081 0.032931 1.376798 0
M  V30 36 H 5.041340 0.093168 0.585266 0
M  V30 37 H 5.447024 -1.277289 1.767681 0
M  V30 38 H 4.410585 0.062514 3.309721 0
M  V30 39 H 6.040039 1.762070 4.316466 0
M  V30 40 H 6.512910 0.072240 4.118131 0
M  V30 41 H 7.195363 1.230678 2.955043 0
M  V30 42 H 5.135280 2.296606 1.533701 0
M  V30 43 H 3.382904 4.275232 2.034001 0
M  V30 44 H 2.870007 3.284041 0.614186 0
M  V30 45 H -1.090485 4.276231 2.559572 0
M  V30 46 H -3.035551 2.894412 2.060448 0
M  V30 47 H -2.720723 0.801452 0.920645 0
M  V30 48 H -2.271998 -4.134175 -1.713912 0
M  V30 49 H -3.715923 -0.991246 -0.296425 0
M  V30 50 H -6.047700 -0.672937 0.065449 0
M  V30 51 H -8.543982 -1.890606 -0.128703 0
M  V30 52 H -7.204859 -5.594836 -1.642501 0
M  V30 53 H -4.487759 -4.926340 -1.674700 0
M  V30 54 H -0.497032 -4.596752 -2.188334 0
M  V30 55 H 1.749954 -5.218856 -2.767237 0
M  V30 56 H 3.594208 -3.735225 -2.191197 0
M  V30 57 H 3.141257 -1.604924 -1.016268 0
M  V30 58 H 1.467637 1.368082 0.717287 0
M  V30 END ATOM
M  V30 BEGIN BOND
M  V30 1 1 1 2
M  V30 2 1 2 3
M  V30 3 1 2 4
M  V30 4 1 4 5
M  V30 5 2 5 6
M  V30 6 1 5 7
M  V30 7 1 7 8
M  V30 8 1 8 9
M  V30 9 2 9 10
M  V30 10 1 10 11
M  V30 11 2 11 12
M  V30 12 1 12 13
M  V30 13 1 13 14
M  V30 14 2 14 15
M  V30 15 1 15 16
M  V30 16 1 16 17
M  V30 17 1 17 18
M  V30 18 2 18 19
M  V30 19 1 19 20
M  V30 20 2 20 21
M  V30 21 1 21 22
M  V30 22 1 22 23
M  V30 23 2 23 24
M  V30 24 1 24 25
M  V30 25 2 25 26
M  V30 26 2 16 27
M  V30 27 1 27 28
M  V30 28 2 28 29
M  V30 29 1 29 30
M  V30 30 2 30 31
M  V30 31 1 31 32
M  V30 32 2 32 33
M  V30 33 2 13 34
M  V30 34 1 34 9
M  V30 35 1 33 14
M  V30 36 1 26 18
M  V30 37 1 32 27
M  V30 38 1 25 21
M  V30 39 1 1 35
M  V30 40 1 1 36
M  V30 41 1 1 37
M  V30 42 1 2 38
M  V30 43 1 3 39
M  V30 44 1 3 40
M  V30 45 1 3 41
M  V30 46 1 4 42
M  V30 47 1 7 43
M  V30 48 1 7 44
M  V30 49 1 10 45
M  V30 50 1 11 46
M  V30 51 1 12 47
M  V30 52 1 17 48
M  V30 53 1 19 49
M  V30 54 1 20 50
M  V30 55 1 22 51
M  V30 56 1 24 52
M  V30 57 1 26 53
M  V30 58 1 28 54
M  V30 59 1 29 55
M  V30 60 1 30 56
M  V30 61 1 31 57
M  V30 62 1 34 58
M  V30 END BOND
M  V30 END CTAB
M  END
>  <Dataset>  (87) 
OralDrugs

>  <Ligand_Instance>  (87) 
nan

>  <PDB_ID>  (87) 
nan

>  <Standardized_SMILES>  (87) 
CC(C)NC(=O)COc1cccc(-c2nc(Nc3ccc4[nH]ncc4c3)c3ccccc3n2)c1

>  <Name>  (87) 
Belumosudil

>  <Pocket>  (87) 
nan

>  <ATP_Site>  (87) 
nan

>  <Peripheral>  (87) 
nan

>  <Num_H_Atoms_ProtBoundConf>  (87) 
nan

>  <Num_Resolved_Atoms>  (87) 
nan

>  <Num_Not_Resolved_Atoms>  (87) 
nan

$$$$
CHEMBL4585668
     RDKit          3D

  0  0  0  0  0  0  0  0  0  0999 V3000
M  V30 BEGIN CTAB
M  V30 COUNTS 38 40 0 0 0
M  V30 BEGIN ATOM
M  V30 1 C 2.341406 -4.083960 3.113203 0
M  V30 2 S 1.647567 -4.396152 1.536400 0
M  V30 3 O 0.573111 -5.433586 1.709653 0
M  V30 4 O 2.708023 -5.039494 0.684203 0
M  V30 5 C 1.069365 -2.991361 0.695326 0
M  V30 6 C 1.582704 -2.612324 -0.551945 0
M  V30 7 C 1.103437 -1.477088 -1.213306 0
M  V30 8 C 0.096378 -0.684369 -0.650150 0
M  V30 9 O -0.221029 0.365232 -1.453552 0
M  V30 10 C -0.140328 1.701496 -1.209985 0
M  V30 11 C -0.593836 2.428471 -2.318381 0
M  V30 12 C -0.610127 3.827776 -2.315813 0
M  V30 13 F -1.036000 4.568140 -3.354893 0
M  V30 14 C -0.175573 4.527879 -1.210634 0
M  V30 15 C 0.270147 3.807786 -0.121438 0
M  V30 16 C 0.747265 4.453219 1.088173 0
M  V30 17 N 1.127422 4.989124 2.052561 0
M  V30 18 C 0.282119 2.428775 -0.134150 0
M  V30 19 C -0.396694 -1.072639 0.577127 0
M  V30 20 C 0.072907 -2.191606 1.233497 0
M  V30 21 C -0.675500 -2.294056 2.500581 0 CFG=2
M  V30 22 O -1.777983 -3.116787 2.325517 0
M  V30 23 C -1.083075 -0.837692 2.765790 0 CFG=2
M  V30 24 F -2.132265 -0.729031 3.624153 0
M  V30 25 C -1.446131 -0.408443 1.349590 0 CFG=2
M  V30 26 F -2.710140 -0.945333 1.073407 0
M  V30 27 H 3.095069 -4.872293 3.323379 0
M  V30 28 H 2.877544 -3.114026 3.183070 0
M  V30 29 H 1.598709 -4.202572 3.951633 0
M  V30 30 H 2.361323 -3.238330 -0.971297 0
M  V30 31 H 1.594434 -1.305059 -2.172686 0
M  V30 32 H -0.967362 2.024557 -3.262252 0
M  V30 33 H -0.175169 5.608480 -1.176290 0
M  V30 34 H 0.617067 1.776475 0.680928 0
M  V30 35 H -0.053970 -2.568411 3.355488 0
M  V30 36 H -2.373308 -3.079178 3.103754 0
M  V30 37 H -0.172151 -0.299068 3.048390 0
M  V30 38 H -1.550635 0.664313 1.223132 0
M  V30 END ATOM
M  V30 BEGIN BOND
M  V30 1 1 1 2
M  V30 2 2 2 3
M  V30 3 2 2 4
M  V30 4 1 2 5
M  V30 5 2 5 6
M  V30 6 1 6 7
M  V30 7 2 7 8
M  V30 8 1 8 9
M  V30 9 1 9 10
M  V30 10 2 10 11
M  V30 11 1 11 12
M  V30 12 1 12 13
M  V30 13 2 12 14
M  V30 14 1 14 15
M  V30 15 1 15 16
M  V30 16 3 16 17
M  V30 17 2 15 18
M  V30 18 1 8 19
M  V30 19 2 19 20
M  V30 20 1 20 21
M  V30 21 1 21 22
M  V30 22 1 21 23
M  V30 23 1 23 24
M  V30 24 1 23 25
M  V30 25 1 25 26
M  V30 26 1 20 5
M  V30 27 1 18 10
M  V30 28 1 25 19
M  V30 29 1 1 27
M  V30 30 1 1 28
M  V30 31 1 1 29
M  V30 32 1 6 30
M  V30 33 1 7 31
M  V30 34 1 11 32
M  V30 35 1 14 33
M  V30 36 1 18 34
M  V30 37 1 21 35 CFG=1
M  V30 38 1 22 36
M  V30 39 1 23 37 CFG=1
M  V30 40 1 25 38 CFG=1
M  V30 END BOND
M  V30 END CTAB
M  END
>  <Dataset>  (88) 
OralDrugs

>  <Ligand_Instance>  (88) 
nan

>  <PDB_ID>  (88) 
nan

>  <Standardized_SMILES>  (88) 
CS(=O)(=O)c1ccc(Oc2cc(F)cc(C#N)c2)c2c1[C@H](O)[C@H](F)[C@@H]2F

>  <Name>  (88) 
Belzutifan

>  <Pocket>  (88) 
nan

>  <ATP_Site>  (88) 
nan

>  <Peripheral>  (88) 
nan

>  <Num_H_Atoms_ProtBoundConf>  (88) 
nan

>  <Num_Resolved_Atoms>  (88) 
nan

>  <Num_Not_Resolved_Atoms>  (88) 
nan

$$$$
CHEMBL3545313
     RDKit          3D

  0  0  0  0  0  0  0  0  0  0999 V3000
M  V30 BEGIN CTAB
M  V30 COUNTS 60 59 0 0 0
M  V30 BEGIN ATOM
M  V30 1 C -2.214079 -2.834045 3.783210 0
M  V30 2 C -0.742144 -2.511381 4.056504 0
M  V30 3 C -0.197323 -3.642536 4.877116 0
M  V30 4 C -0.056801 -2.346585 2.717641 0
M  V30 5 C 1.410986 -2.022946 2.833135 0
M  V30 6 C 2.096337 -1.862394 1.499474 0
M  V30 7 C 1.461141 -0.731671 0.665721 0
M  V30 8 C 1.552528 0.545429 1.366066 0
M  V30 9 C 1.062840 1.801277 0.765098 0
M  V30 10 O 1.655192 2.197099 -0.426814 0
M  V30 11 C -0.367773 2.121632 0.939502 0
M  V30 12 C -1.491080 1.334315 0.475068 0
M  V30 13 C -1.776624 1.069683 -0.953503 0
M  V30 14 C -0.808099 0.250173 -1.684331 0
M  V30 15 C -1.206775 0.072712 -3.172674 0
M  V30 16 C -0.204029 -0.773732 -3.906273 0
M  V30 17 C -0.654147 -0.910910 -5.366267 0
M  V30 18 C 1.164140 -0.183252 -3.946959 0
M  V30 19 C -0.094780 -2.136916 -3.344279 0
M  V30 20 O -0.327286 -3.210938 -3.978713 0
M  V30 21 O 0.085648 -3.289703 -2.571307 0
M  V30 22 C -0.698754 -1.258328 4.849509 0
M  V30 23 O -1.872438 -0.853624 5.049498 0
M  V30 24 O -0.243383 -0.169170 5.558501 0
M  V30 25 H -2.792276 -2.627810 4.727479 0
M  V30 26 H -2.567226 -2.122833 3.012574 0
M  V30 27 H -2.291869 -3.889208 3.491909 0
M  V30 28 H 0.878257 -3.798286 4.801602 0
M  V30 29 H -0.682848 -4.575950 4.471454 0
M  V30 30 H -0.560571 -3.560470 5.910693 0
M  V30 31 H -0.555861 -1.474506 2.226908 0
M  V30 32 H -0.204349 -3.224782 2.063586 0
M  V30 33 H 1.545326 -1.126436 3.469900 0
M  V30 34 H 1.948570 -2.879378 3.334743 0
M  V30 35 H 3.132596 -1.525153 1.726339 0
M  V30 36 H 2.086212 -2.804293 0.950534 0
M  V30 37 H 1.983216 -0.755474 -0.310135 0
M  V30 38 H 0.433256 -1.118327 0.497192 0
M  V30 39 H 0.990168 0.434786 2.347998 0
M  V30 40 H 2.623317 0.644194 1.733018 0
M  V30 41 H 1.563836 2.609485 1.473695 0
M  V30 42 H 2.249456 1.527351 -0.823617 0
M  V30 43 H -0.479378 2.267540 2.092733 0
M  V30 44 H -0.546203 3.225152 0.612755 0
M  V30 45 H -1.590477 0.353624 1.065130 0
M  V30 46 H -2.438938 1.884468 0.849756 0
M  V30 47 H -1.963101 2.075611 -1.491610 0
M  V30 48 H -2.808366 0.598211 -1.081667 0
M  V30 49 H -0.963533 -0.823589 -1.316170 0
M  V30 50 H 0.213494 0.549764 -1.636034 0
M  V30 51 H -1.261313 1.073133 -3.643719 0
M  V30 52 H -2.183680 -0.445193 -3.146471 0
M  V30 53 H -0.365314 -1.926210 -5.727204 0
M  V30 54 H -1.755702 -0.847025 -5.433142 0
M  V30 55 H -0.170107 -0.169885 -6.016289 0
M  V30 56 H 1.762263 -0.735057 -4.704585 0
M  V30 57 H 1.170821 0.877451 -4.308641 0
M  V30 58 H 1.739703 -0.287546 -2.997050 0
M  V30 59 H 0.211520 -3.184999 -1.560910 0
M  V30 60 H 0.072480 -0.217509 6.517193 0
M  V30 END ATOM
M  V30 BEGIN BOND
M  V30 1 1 1 2
M  V30 2 1 2 3
M  V30 3 1 2 4
M  V30 4 1 4 5
M  V30 5 1 5 6
M  V30 6 1 6 7
M  V30 7 1 7 8
M  V30 8 1 8 9
M  V30 9 1 9 10
M  V30 10 1 9 11
M  V30 11 1 11 12
M  V30 12 1 12 13
M  V30 13 1 13 14
M  V30 14 1 14 15
M  V30 15 1 15 16
M  V30 16 1 16 17
M  V30 17 1 16 18
M  V30 18 1 16 19
M  V30 19 2 19 20
M  V30 20 1 19 21
M  V30 21 1 2 22
M  V30 22 2 22 23
M  V30 23 1 22 24
M  V30 24 1 1 25
M  V30 25 1 1 26
M  V30 26 1 1 27
M  V30 27 1 3 28
M  V30 28 1 3 29
M  V30 29 1 3 30
M  V30 30 1 4 31
M  V30 31 1 4 32
M  V30 32 1 5 33
M  V30 33 1 5 34
M  V30 34 1 6 35
M  V30 35 1 6 36
M  V30 36 1 7 37
M  V30 37 1 7 38
M  V30 38 1 8 39
M  V30 39 1 8 40
M  V30 40 1 9 41
M  V30 41 1 10 42
M  V30 42 1 11 43
M  V30 43 1 11 44
M  V30 44 1 12 45
M  V30 45 1 12 46
M  V30 46 1 13 47
M  V30 47 1 13 48
M  V30 48 1 14 49
M  V30 49 1 14 50
M  V30 50 1 15 51
M  V30 51 1 15 52
M  V30 52 1 17 53
M  V30 53 1 17 54
M  V30 54 1 17 55
M  V30 55 1 18 56
M  V30 56 1 18 57
M  V30 57 1 18 58
M  V30 58 1 21 59
M  V30 59 1 24 60
M  V30 END BOND
M  V30 END CTAB
M  END
>  <Dataset>  (89) 
OralDrugs

>  <Ligand_Instance>  (89) 
nan

>  <PDB_ID>  (89) 
nan

>  <Standardized_SMILES>  (89) 
CC(C)(CCCCCC(O)CCCCCC(C)(C)C(=O)O)C(=O)O

>  <Name>  (89) 
Bempedoic Acid

>  <Pocket>  (89) 
nan

>  <ATP_Site>  (89) 
nan

>  <Peripheral>  (89) 
nan

>  <Num_H_Atoms_ProtBoundConf>  (89) 
nan

>  <Num_Resolved_Atoms>  (89) 
nan

>  <Num_Not_Resolved_Atoms>  (89) 
nan

$$$$
CHEMBL1684
     RDKit          3D

  0  0  0  0  0  0  0  0  0  0999 V3000
M  V30 BEGIN CTAB
M  V30 COUNTS 41 43 0 0 0
M  V30 BEGIN ATOM
M  V30 1 N 5.145288 0.453359 3.253521 0
M  V30 2 S 5.137102 -0.693308 1.971309 0
M  V30 3 O 5.031526 -2.055714 2.633593 0
M  V30 4 O 6.380070 -0.606777 1.135356 0
M  V30 5 C 3.696991 -0.458541 1.017165 0
M  V30 6 C 2.730022 -1.467013 0.915962 0
M  V30 7 C 1.579976 -1.345676 0.187077 0
M  V30 8 C 1.312597 -0.185241 -0.503850 0
M  V30 9 C 2.234123 0.820483 -0.428187 0
M  V30 10 C 3.412240 0.692216 0.320191 0
M  V30 11 C 4.351932 1.839896 0.337820 0
M  V30 12 F 4.511968 2.318972 1.614790 0
M  V30 13 F 3.849726 2.894105 -0.403916 0
M  V30 14 F 5.562667 1.513726 -0.248165 0
M  V30 15 N 0.125005 -0.042817 -1.260458 0
M  V30 16 C -1.140070 -0.643720 -0.810446 0
M  V30 17 C -1.595060 -0.025993 0.484945 0
M  V30 18 C -2.849628 -0.554247 1.021651 0
M  V30 19 C -3.035898 -1.597691 1.904362 0
M  V30 20 C -4.285523 -1.999168 2.330154 0
M  V30 21 C -5.423534 -1.360830 1.881882 0
M  V30 22 C -5.308444 -0.308337 0.997005 0
M  V30 23 C -4.038145 0.055847 0.600675 0
M  V30 24 N -1.058914 -2.067941 -0.666427 0
M  V30 25 S 0.389480 -2.623497 0.074938 0
M  V30 26 O 0.980561 -3.643940 -0.889425 0
M  V30 27 O 0.163345 -3.310631 1.372882 0
M  V30 28 H 5.725709 0.129415 4.077799 0
M  V30 29 H 4.161835 0.494629 3.620436 0
M  V30 30 H 2.863631 -2.405480 1.426541 0
M  V30 31 H 2.052131 1.762632 -0.969969 0
M  V30 32 H 0.214696 0.521275 -2.159446 0
M  V30 33 H -1.858793 -0.440969 -1.630458 0
M  V30 34 H -0.764955 -0.033693 1.239847 0
M  V30 35 H -1.728951 1.075062 0.269338 0
M  V30 36 H -2.129788 -2.080879 2.243830 0
M  V30 37 H -4.389383 -2.818692 3.020209 0
M  V30 38 H -6.434539 -1.616237 2.168574 0
M  V30 39 H -6.166579 0.221890 0.618338 0
M  V30 40 H -3.980390 0.898443 -0.105201 0
M  V30 41 H -1.871193 -2.400967 -0.109164 0
M  V30 END ATOM
M  V30 BEGIN BOND
M  V30 1 1 1 2
M  V30 2 2 2 3
M  V30 3 2 2 4
M  V30 4 1 2 5
M  V30 5 2 5 6
M  V30 6 1 6 7
M  V30 7 2 7 8
M  V30 8 1 8 9
M  V30 9 2 9 10
M  V30 10 1 10 11
M  V30 11 1 11 12
M  V30 12 1 11 13
M  V30 13 1 11 14
M  V30 14 1 8 15
M  V30 15 1 15 16
M  V30 16 1 16 17
M  V30 17 1 17 18
M  V30 18 2 18 19
M  V30 19 1 19 20
M  V30 20 2 20 21
M  V30 21 1 21 22
M  V30 22 2 22 23
M  V30 23 1 16 24
M  V30 24 1 24 25
M  V30 25 2 25 26
M  V30 26 2 25 27
M  V30 27 1 10 5
M  V30 28 1 23 18
M  V30 29 1 25 7
M  V30 30 1 1 28
M  V30 31 1 1 29
M  V30 32 1 6 30
M  V30 33 1 9 31
M  V30 34 1 15 32
M  V30 35 1 16 33
M  V30 36 1 17 34
M  V30 37 1 17 35
M  V30 38 1 19 36
M  V30 39 1 20 37
M  V30 40 1 21 38
M  V30 41 1 22 39
M  V30 42 1 23 40
M  V30 43 1 24 41
M  V30 END BOND
M  V30 END CTAB
M  END
>  <Dataset>  (90) 
OralDrugs

>  <Ligand_Instance>  (90) 
nan

>  <PDB_ID>  (90) 
nan

>  <Standardized_SMILES>  (90) 
NS(=O)(=O)c1cc2c(cc1C(F)(F)F)NC(Cc1ccccc1)NS2(=O)=O

>  <Name>  (90) 
Bendroflumethiazide

>  <Pocket>  (90) 
nan

>  <ATP_Site>  (90) 
nan

>  <Peripheral>  (90) 
nan

>  <Num_H_Atoms_ProtBoundConf>  (90) 
nan

>  <Num_Resolved_Atoms>  (90) 
nan

>  <Num_Not_Resolved_Atoms>  (90) 
nan

$$$$
CHEMBL297302
     RDKit          3D

  0  0  0  0  0  0  0  0  0  0999 V3000
M  V30 BEGIN CTAB
M  V30 COUNTS 52 55 0 0 0
M  V30 BEGIN ATOM
M  V30 1 O 0.894969 -3.334612 0.591223 0
M  V30 2 C -0.331857 -3.624654 0.810680 0
M  V30 3 C -1.449318 -2.908398 1.478301 0
M  V30 4 C -2.352693 -2.185602 0.565240 0
M  V30 5 C -1.823454 -1.083766 -0.276387 0
M  V30 6 N -1.334505 0.033374 0.371838 0
M  V30 7 C -0.146491 0.060979 1.120083 0
M  V30 8 C -0.413285 0.936740 2.340436 0
M  V30 9 C -0.494000 2.350669 1.828229 0
M  V30 10 N 0.637624 2.824276 1.101071 0
M  V30 11 C 0.460284 3.666393 0.036609 0
M  V30 12 O -0.494033 4.237352 -0.593483 0
M  V30 13 N 1.635312 4.002623 -0.522640 0
M  V30 14 C 2.632856 3.394569 0.153593 0
M  V30 15 C 4.016383 3.335248 0.089494 0
M  V30 16 C 4.782323 2.597962 0.966281 0
M  V30 17 C 4.093353 1.888334 1.956022 0
M  V30 18 C 2.737183 1.956435 2.005330 0
M  V30 19 C 1.969161 2.690067 1.132671 0
M  V30 20 C -1.750259 2.318141 0.922982 0
M  V30 21 C -1.592216 1.335180 -0.197828 0
M  V30 22 C -0.574553 -4.959173 0.242718 0
M  V30 23 C 0.389372 -5.716323 -0.382622 0
M  V30 24 C 0.188651 -6.983681 -0.937490 0
M  V30 25 C -1.065940 -7.532934 -0.861276 0
M  V30 26 F -1.280467 -8.756434 -1.392322 0
M  V30 27 C -2.073270 -6.817682 -0.244758 0
M  V30 28 C -1.801917 -5.574866 0.279080 0
M  V30 29 H -1.152850 -2.285955 2.334056 0
M  V30 30 H -2.060087 -3.733272 1.962771 0
M  V30 31 H -3.150349 -1.702931 1.224379 0
M  V30 32 H -2.977089 -2.896728 -0.056641 0
M  V30 33 H -2.692044 -0.789498 -0.959975 0
M  V30 34 H -1.023518 -1.464151 -0.986580 0
M  V30 35 H 0.362694 -0.858143 1.371746 0
M  V30 36 H 0.624090 0.667183 0.516074 0
M  V30 37 H 0.199337 0.743901 3.199738 0
M  V30 38 H -1.498020 0.676807 2.611364 0
M  V30 39 H -0.785402 3.052720 2.649346 0
M  V30 40 H 1.950465 4.609153 -1.339463 0
M  V30 41 H 4.511761 3.892889 -0.683685 0
M  V30 42 H 5.858168 2.598652 0.856271 0
M  V30 43 H 4.679003 1.305106 2.652986 0
M  V30 44 H 2.276556 1.395718 2.790174 0
M  V30 45 H -2.110804 3.292369 0.647281 0
M  V30 46 H -2.527452 1.867460 1.621810 0
M  V30 47 H -0.714596 1.555813 -0.843209 0
M  V30 48 H -2.542935 1.359617 -0.770380 0
M  V30 49 H 1.398219 -5.357464 -0.482406 0
M  V30 50 H 0.978403 -7.527906 -1.412770 0
M  V30 51 H -3.028604 -7.311481 -0.222460 0
M  V30 52 H -2.669819 -5.136623 0.720186 0
M  V30 END ATOM
M  V30 BEGIN BOND
M  V30 1 2 1 2
M  V30 2 1 2 3
M  V30 3 1 3 4
M  V30 4 1 4 5
M  V30 5 1 5 6
M  V30 6 1 6 7
M  V30 7 1 7 8
M  V30 8 1 8 9
M  V30 9 1 9 10
M  V30 10 1 10 11
M  V30 11 2 11 12
M  V30 12 1 11 13
M  V30 13 1 13 14
M  V30 14 2 14 15
M  V30 15 1 15 16
M  V30 16 2 16 17
M  V30 17 1 17 18
M  V30 18 2 18 19
M  V30 19 1 9 20
M  V30 20 1 20 21
M  V30 21 1 2 22
M  V30 22 2 22 23
M  V30 23 1 23 24
M  V30 24 2 24 25
M  V30 25 1 25 26
M  V30 26 1 25 27
M  V30 27 2 27 28
M  V30 28 1 21 6
M  V30 29 1 28 22
M  V30 30 1 19 10
M  V30 31 1 19 14
M  V30 32 1 3 29
M  V30 33 1 3 30
M  V30 34 1 4 31
M  V30 35 1 4 32
M  V30 36 1 5 33
M  V30 37 1 5 34
M  V30 38 1 7 35
M  V30 39 1 7 36
M  V30 40 1 8 37
M  V30 41 1 8 38
M  V30 42 1 9 39
M  V30 43 1 13 40
M  V30 44 1 15 41
M  V30 45 1 16 42
M  V30 46 1 17 43
M  V30 47 1 18 44
M  V30 48 1 20 45
M  V30 49 1 20 46
M  V30 50 1 21 47
M  V30 51 1 21 48
M  V30 52 1 23 49
M  V30 53 1 24 50
M  V30 54 1 27 51
M  V30 55 1 28 52
M  V30 END BOND
M  V30 END CTAB
M  END
>  <Dataset>  (91) 
OralDrugs

>  <Ligand_Instance>  (91) 
nan

>  <PDB_ID>  (91) 
nan

>  <Standardized_SMILES>  (91) 
O=C(CCCN1CCC(n2c(=O)[nH]c3ccccc32)CC1)c1ccc(F)cc1

>  <Name>  (91) 
Benperidol

>  <Pocket>  (91) 
nan

>  <ATP_Site>  (91) 
nan

>  <Peripheral>  (91) 
nan

>  <Num_H_Atoms_ProtBoundConf>  (91) 
nan

>  <Num_Resolved_Atoms>  (91) 
nan

>  <Num_Not_Resolved_Atoms>  (91) 
nan

$$$$
CHEMBL1200368
     RDKit          3D

  0  0  0  0  0  0  0  0  0  0999 V3000
M  V30 BEGIN CTAB
M  V30 COUNTS 50 52 0 0 0
M  V30 BEGIN ATOM
M  V30 1 O 3.233127 -6.942809 0.811300 0
M  V30 2 C 3.058885 -6.301534 -0.234230 0
M  V30 3 O 3.067371 -7.141244 -1.362956 0
M  V30 4 C 2.849823 -4.897169 -0.564460 0
M  V30 5 C 2.669395 -4.371955 -1.827559 0
M  V30 6 C 2.489113 -3.007396 -1.885059 0
M  V30 7 C 2.483504 -2.189903 -0.779980 0
M  V30 8 N 2.289751 -0.789384 -0.925757 0
M  V30 9 C 0.956237 -0.360142 -0.871180 0
M  V30 10 O -0.217660 -0.803595 -0.729134 0
M  V30 11 C 0.394866 1.024886 -0.986276 0 CFG=2
M  V30 12 C 1.124475 2.039561 -0.160806 0
M  V30 13 C 1.152702 1.796904 1.275022 0
M  V30 14 C 0.150868 2.294115 2.110274 0
M  V30 15 C 0.128004 2.093417 3.496811 0
M  V30 16 C 1.152866 1.362591 4.076861 0
M  V30 17 O 1.033796 1.223629 5.453144 0
M  V30 18 C 2.170849 0.847506 3.291791 0
M  V30 19 C 2.136002 1.080903 1.926290 0
M  V30 20 N -1.001661 0.978147 -0.911014 0
M  V30 21 C -2.398936 0.945560 -0.908636 0
M  V30 22 O -2.620243 1.181341 -2.161326 0
M  V30 23 C -3.448928 0.733655 0.066297 0
M  V30 24 C -4.695282 0.818335 -0.498700 0
M  V30 25 C -5.770208 0.624687 0.378261 0
M  V30 26 C -5.521361 0.368361 1.716309 0
M  V30 27 C -4.228745 0.292720 2.240157 0
M  V30 28 C -3.138805 0.483315 1.380511 0
M  V30 29 C 2.665864 -2.737065 0.471513 0
M  V30 30 C 2.853688 -4.121320 0.587420 0
M  V30 31 H 3.417582 -8.078966 -1.367355 0
M  V30 32 H 2.685552 -5.072402 -2.647588 0
M  V30 33 H 2.346461 -2.574034 -2.855270 0
M  V30 34 H 2.831707 0.089826 -1.071159 0
M  V30 35 H 0.631197 1.277323 -2.086063 0
M  V30 36 H 2.109264 2.230237 -0.627149 0
M  V30 37 H 0.571028 3.015467 -0.301186 0
M  V30 38 H -0.638941 2.867894 1.595093 0
M  V30 39 H -0.726290 2.553874 3.969646 0
M  V30 40 H 0.161187 0.881554 5.887024 0
M  V30 41 H 2.939438 0.290160 3.793375 0
M  V30 42 H 2.939622 0.664321 1.375264 0
M  V30 43 H -0.887317 0.774663 0.156792 0
M  V30 44 H -4.890084 1.018881 -1.541270 0
M  V30 45 H -6.773155 0.676080 0.008955 0
M  V30 46 H -6.323524 0.208719 2.448786 0
M  V30 47 H -4.036756 0.091762 3.285982 0
M  V30 48 H -2.120262 0.434434 1.738588 0
M  V30 49 H 2.660158 -2.074327 1.340876 0
M  V30 50 H 2.985298 -4.443020 1.591036 0
M  V30 END ATOM
M  V30 BEGIN BOND
M  V30 1 2 1 2
M  V30 2 1 2 3
M  V30 3 1 2 4
M  V30 4 2 4 5
M  V30 5 1 5 6
M  V30 6 2 6 7
M  V30 7 1 7 8
M  V30 8 1 8 9
M  V30 9 2 9 10
M  V30 10 1 9 11
M  V30 11 1 11 12
M  V30 12 1 12 13
M  V30 13 2 13 14
M  V30 14 1 14 15
M  V30 15 2 15 16
M  V30 16 1 16 17
M  V30 17 1 16 18
M  V30 18 2 18 19
M  V30 19 1 11 20
M  V30 20 1 20 21
M  V30 21 2 21 22
M  V30 22 1 21 23
M  V30 23 2 23 24
M  V30 24 1 24 25
M  V30 25 2 25 26
M  V30 26 1 26 27
M  V30 27 2 27 28
M  V30 28 1 7 29
M  V30 29 2 29 30
M  V30 30 1 30 4
M  V30 31 1 19 13
M  V30 32 1 28 23
M  V30 33 1 3 31
M  V30 34 1 5 32
M  V30 35 1 6 33
M  V30 36 1 8 34
M  V30 37 1 11 35 CFG=3
M  V30 38 1 12 36
M  V30 39 1 12 37
M  V30 40 1 14 38
M  V30 41 1 15 39
M  V30 42 1 17 40
M  V30 43 1 18 41
M  V30 44 1 19 42
M  V30 45 1 20 43
M  V30 46 1 24 44
M  V30 47 1 25 45
M  V30 48 1 26 46
M  V30 49 1 27 47
M  V30 50 1 28 48
M  V30 51 1 29 49
M  V30 52 1 30 50
M  V30 END BOND
M  V30 END CTAB
M  END
>  <Dataset>  (92) 
OralDrugs

>  <Ligand_Instance>  (92) 
nan

>  <PDB_ID>  (92) 
nan

>  <Standardized_SMILES>  (92) 
O=C(O)c1ccc(NC(=O)[C@H](Cc2ccc(O)cc2)NC(=O)c2ccccc2)cc1

>  <Name>  (92) 
Bentiromide

>  <Pocket>  (92) 
nan

>  <ATP_Site>  (92) 
nan

>  <Peripheral>  (92) 
nan

>  <Num_H_Atoms_ProtBoundConf>  (92) 
nan

>  <Num_Resolved_Atoms>  (92) 
nan

>  <Num_Not_Resolved_Atoms>  (92) 
nan

$$$$
CHEMBL3137321
     RDKit          3D

  0  0  0  0  0  0  0  0  0  0999 V3000
M  V30 BEGIN CTAB
M  V30 COUNTS 55 60 0 0 0
M  V30 BEGIN ATOM
M  V30 1 C 4.271731 -4.133021 1.580200 0
M  V30 2 O 3.372757 -3.046810 1.473828 0
M  V30 3 C 2.153625 -3.229534 0.792092 0
M  V30 4 C 1.814136 -4.461982 0.218680 0
M  V30 5 C 0.595311 -4.619960 -0.455115 0
M  V30 6 C -0.279044 -3.545670 -0.552583 0
M  V30 7 C 0.203796 -2.410916 0.063251 0
M  V30 8 C 1.352252 -2.106163 0.747631 0
M  V30 9 O 1.275440 -0.788694 1.133680 0
M  V30 10 C 0.150337 -0.179477 0.603908 0 CFG=1
M  V30 11 C 0.398714 0.956046 -0.321298 0
M  V30 12 O 1.405983 1.853239 0.020810 0
M  V30 13 C 1.479419 2.621409 1.136011 0
M  V30 14 O 1.225043 1.845873 0.198005 0
M  V30 15 C 1.436711 3.387123 2.368070 0
M  V30 16 C 2.508420 4.230759 2.560715 0
M  V30 17 C 2.460263 4.953774 3.732287 0
M  V30 18 C 1.374940 4.759827 4.561514 0
M  V30 19 C 0.311601 3.908097 4.347604 0
M  V30 20 C 0.342144 3.175555 3.179592 0
M  V30 21 C -0.233600 1.245824 -1.478094 0
M  V30 22 C -1.317274 0.283891 -1.852188 0
M  V30 23 C -0.946917 -1.104327 -1.488870 0 CFG=2
M  V30 24 C -1.950236 -2.169716 -1.818872 0 CFG=1
M  V30 25 C -1.593920 -3.517329 -1.233646 0
M  V30 26 N -3.219580 -1.687258 -1.332303 0
M  V30 27 C -4.359093 -2.393116 -1.827824 0
M  V30 28 C -3.233474 -1.409169 0.069868 0
M  V30 29 C -1.947648 -1.506811 0.776467 0
M  V30 30 C -0.700488 -1.227063 -0.001894 0 CFG=1
M  V30 31 H 4.678006 -4.453075 0.588329 0
M  V30 32 H 5.028286 -3.959978 2.344387 0
M  V30 33 H 3.680122 -5.027121 1.931096 0
M  V30 34 H 2.497284 -5.308081 0.292945 0
M  V30 35 H 0.282235 -5.539996 -0.913943 0
M  V30 36 H -0.435443 0.190873 1.512582 0
M  V30 37 H 3.309862 4.322420 1.868401 0
M  V30 38 H 3.243085 5.651268 3.999066 0
M  V30 39 H 1.323256 5.323401 5.489485 0
M  V30 40 H -0.495495 3.820069 5.051422 0
M  V30 41 H -0.424798 2.489669 2.914309 0
M  V30 42 H 0.046168 2.110372 -2.061051 0
M  V30 43 H -2.259382 0.629887 -1.381148 0
M  V30 44 H -1.453582 0.382345 -2.948843 0
M  V30 45 H -0.007439 -1.375134 -2.055760 0
M  V30 46 H -2.032104 -2.246416 -2.926412 0
M  V30 47 H -2.423874 -3.801659 -0.546281 0
M  V30 48 H -1.578593 -4.309069 -2.014631 0
M  V30 49 H -5.231041 -2.116016 -1.213226 0
M  V30 50 H -4.544033 -2.160832 -2.902107 0
M  V30 51 H -4.113197 -3.485437 -1.787682 0
M  V30 52 H -3.739455 -0.428525 0.193096 0
M  V30 53 H -3.952610 -2.146117 0.529869 0
M  V30 54 H -1.976600 -0.729635 1.600046 0
M  V30 55 H -1.826927 -2.458548 1.341774 0
M  V30 END ATOM
M  V30 BEGIN BOND
M  V30 1 1 1 2
M  V30 2 1 2 3
M  V30 3 2 3 4
M  V30 4 1 4 5
M  V30 5 2 5 6
M  V30 6 1 6 7
M  V30 7 2 7 8
M  V30 8 1 8 9
M  V30 9 1 9 10
M  V30 10 1 10 11
M  V30 11 1 11 12
M  V30 12 1 12 13
M  V30 13 2 13 14
M  V30 14 1 13 15
M  V30 15 2 15 16
M  V30 16 1 16 17
M  V30 17 2 17 18
M  V30 18 1 18 19
M  V30 19 2 19 20
M  V30 20 2 11 21
M  V30 21 1 21 22
M  V30 22 1 22 23
M  V30 23 1 23 24
M  V30 24 1 24 25
M  V30 25 1 24 26
M  V30 26 1 26 27
M  V30 27 1 26 28
M  V30 28 1 28 29
M  V30 29 1 30 29 CFG=1
M  V30 30 1 8 3
M  V30 31 1 30 10
M  V30 32 1 25 6
M  V30 33 1 30 7
M  V30 34 1 20 15
M  V30 35 1 30 23
M  V30 36 1 1 31
M  V30 37 1 1 32
M  V30 38 1 1 33
M  V30 39 1 4 34
M  V30 40 1 5 35
M  V30 41 1 10 36 CFG=1
M  V30 42 1 16 37
M  V30 43 1 17 38
M  V30 44 1 18 39
M  V30 45 1 19 40
M  V30 46 1 20 41
M  V30 47 1 21 42
M  V30 48 1 22 43
M  V30 49 1 22 44
M  V30 50 1 23 45 CFG=3
M  V30 51 1 24 46 CFG=3
M  V30 52 1 25 47
M  V30 53 1 25 48
M  V30 54 1 27 49
M  V30 55 1 27 50
M  V30 56 1 27 51
M  V30 57 1 28 52
M  V30 58 1 28 53
M  V30 59 1 29 54
M  V30 60 1 29 55
M  V30 END BOND
M  V30 END CTAB
M  END
>  <Dataset>  (93) 
OralDrugs

>  <Ligand_Instance>  (93) 
nan

>  <PDB_ID>  (93) 
nan

>  <Standardized_SMILES>  (93) 
COc1ccc2c3c1O[C@H]1C(OC(=O)c4ccccc4)=CC[C@@H]4[C@@H](C2)N(C)CC[C@@]341

>  <Name>  (93) 
Benzhydrocodone

>  <Pocket>  (93) 
nan

>  <ATP_Site>  (93) 
nan

>  <Peripheral>  (93) 
nan

>  <Num_H_Atoms_ProtBoundConf>  (93) 
nan

>  <Num_Resolved_Atoms>  (93) 
nan

>  <Num_Not_Resolved_Atoms>  (93) 
nan

$$$$
CHEMBL110
     RDKit          3D

  0  0  0  0  0  0  0  0  0  0999 V3000
M  V30 BEGIN CTAB
M  V30 COUNTS 31 32 0 0 0
M  V30 BEGIN ATOM
M  V30 1 O 0.848489 -1.807253 1.274094 0
M  V30 2 C 0.003538 -1.135666 1.898791 0
M  V30 3 C 0.567615 -0.289833 2.955062 0
M  V30 4 N 2.027150 -0.464643 2.998253 0
M  V30 5 C 2.720149 -1.374381 3.735783 0
M  V30 6 C 4.076278 -1.180810 3.467190 0
M  V30 7 N 4.138277 -0.168382 2.584402 0
M  V30 8 C 2.904672 0.277872 2.289031 0
M  V30 9 N 2.663375 1.339847 1.386542 0 CHG=1 VAL=4
M  V30 10 O 1.535301 1.765661 1.101406 0
M  V30 11 O 3.740905 1.941179 0.784665 0 CHG=-1 VAL=1
M  V30 12 N -1.366378 -1.206955 1.591013 0
M  V30 13 C -1.973185 -2.032895 0.549324 0
M  V30 14 C -1.731604 -1.402266 -0.775172 0
M  V30 15 C -0.671910 -1.620704 -1.634775 0
M  V30 16 C -0.605622 -0.938080 -2.834393 0
M  V30 17 C -1.553495 -0.024362 -3.248282 0
M  V30 18 C -2.618124 0.192747 -2.381271 0
M  V30 19 C -2.704743 -0.477585 -1.178081 0
M  V30 20 H 0.164581 -0.638467 3.943606 0
M  V30 21 H 0.352245 0.781241 2.860459 0
M  V30 22 H 2.289516 -2.107613 4.403607 0
M  V30 23 H 4.865520 -1.779850 3.927661 0
M  V30 24 H -1.987687 -0.587982 2.193290 0
M  V30 25 H -3.057263 -2.143238 0.711027 0
M  V30 26 H -1.484902 -3.049384 0.566798 0
M  V30 27 H 0.054444 -2.339717 -1.290532 0
M  V30 28 H 0.282299 -1.203645 -3.418216 0
M  V30 29 H -1.388198 0.443642 -4.208681 0
M  V30 30 H -3.349946 0.911979 -2.724297 0
M  V30 31 H -3.586660 -0.204770 -0.612842 0
M  V30 END ATOM
M  V30 BEGIN BOND
M  V30 1 2 1 2
M  V30 2 1 2 3
M  V30 3 1 3 4
M  V30 4 1 4 5
M  V30 5 2 5 6
M  V30 6 1 6 7
M  V30 7 2 7 8
M  V30 8 1 8 9
M  V30 9 2 9 10
M  V30 10 1 9 11
M  V30 11 1 2 12
M  V30 12 1 12 13
M  V30 13 1 13 14
M  V30 14 2 14 15
M  V30 15 1 15 16
M  V30 16 2 16 17
M  V30 17 1 17 18
M  V30 18 2 18 19
M  V30 19 1 8 4
M  V30 20 1 19 14
M  V30 21 1 3 20
M  V30 22 1 3 21
M  V30 23 1 5 22
M  V30 24 1 6 23
M  V30 25 1 12 24
M  V30 26 1 13 25
M  V30 27 1 13 26
M  V30 28 1 15 27
M  V30 29 1 16 28
M  V30 30 1 17 29
M  V30 31 1 18 30
M  V30 32 1 19 31
M  V30 END BOND
M  V30 END CTAB
M  END
>  <Dataset>  (94) 
OralDrugs

>  <Ligand_Instance>  (94) 
nan

>  <PDB_ID>  (94) 
nan

>  <Standardized_SMILES>  (94) 
O=C(Cn1ccnc1[N+](=O)[O-])NCc1ccccc1

>  <Name>  (94) 
Benznidazole

>  <Pocket>  (94) 
nan

>  <ATP_Site>  (94) 
nan

>  <Peripheral>  (94) 
nan

>  <Num_H_Atoms_ProtBoundConf>  (94) 
nan

>  <Num_Resolved_Atoms>  (94) 
nan

>  <Num_Not_Resolved_Atoms>  (94) 
nan

$$$$
CHEMBL1374379
     RDKit          3D

  0  0  0  0  0  0  0  0  0  0999 V3000
M  V30 BEGIN CTAB
M  V30 COUNTS 95 95 0 0 0
M  V30 BEGIN ATOM
M  V30 1 C 0.880130 -7.085911 3.625056 0
M  V30 2 C 2.276378 -6.722059 4.081485 0
M  V30 3 C 3.196025 -6.715087 2.864097 0
M  V30 4 C 4.602481 -6.349979 3.274170 0
M  V30 5 N 4.688263 -5.054040 3.879782 0
M  V30 6 C 4.509537 -3.760653 3.323964 0
M  V30 7 C 4.247848 -3.544095 1.988665 0
M  V30 8 C 4.051118 -2.282846 1.429266 0
M  V30 9 C 4.121118 -1.177743 2.254106 0
M  V30 10 C 3.924592 0.186961 1.775558 0
M  V30 11 O 3.673733 0.487458 0.588601 0
M  V30 12 O 4.017629 1.219421 2.677105 0
M  V30 13 C 3.874788 2.572340 2.485243 0
M  V30 14 C 2.578047 3.102202 2.008522 0
M  V30 15 O 1.456254 2.915978 2.757130 0
M  V30 16 C 1.140469 1.596087 2.928069 0
M  V30 17 C -0.160662 1.404569 3.729786 0
M  V30 18 O -1.217037 2.014417 3.084041 0
M  V30 19 C -2.427918 1.846350 3.729337 0
M  V30 20 C -2.866648 0.417963 3.828628 0
M  V30 21 O -3.024336 -0.124010 2.545546 0
M  V30 22 C -3.378068 -1.456520 2.567458 0
M  V30 23 C -3.613314 -1.999232 1.175300 0
M  V30 24 O -2.520615 -1.906212 0.341193 0
M  V30 25 C -2.863845 -2.426258 -0.874725 0
M  V30 26 C -1.817916 -2.370493 -1.944568 0
M  V30 27 O -1.371819 -1.139807 -2.311505 0
M  V30 28 C -0.753418 -0.374182 -1.359200 0
M  V30 29 C -0.336683 0.969056 -1.986925 0
M  V30 30 O 0.524183 0.684373 -3.023095 0
M  V30 31 C 0.971532 1.844671 -3.664964 0
M  V30 32 C -0.187851 2.635625 -4.237477 0
M  V30 33 O -0.897896 1.898159 -5.171912 0
M  V30 34 C -1.988214 2.630518 -5.676095 0
M  V30 35 C -2.736042 1.831239 -6.704856 0
M  V30 36 O -3.828455 2.477674 -7.248545 0
M  V30 37 C -4.787797 2.808716 -6.320548 0
M  V30 38 C -5.982214 3.504516 -6.891085 0
M  V30 39 O -6.669454 2.792945 -7.811954 0
M  V30 40 C -6.001481 2.422696 -8.938315 0
M  V30 41 C 4.384857 -1.410501 3.588051 0
M  V30 42 C 4.579908 -2.654637 4.143215 0
M  V30 43 H 0.562481 -8.089493 4.015241 0
M  V30 44 H 0.143154 -6.345167 3.985940 0
M  V30 45 H 0.834187 -7.133051 2.530453 0
M  V30 46 H 2.243894 -5.701365 4.492780 0
M  V30 47 H 2.597994 -7.493868 4.826559 0
M  V30 48 H 3.179382 -7.717360 2.386315 0
M  V30 49 H 2.787922 -5.978295 2.176127 0
M  V30 50 H 4.987337 -7.136511 3.938000 0
M  V30 51 H 5.244152 -6.372268 2.342523 0
M  V30 52 H 4.925367 -5.082815 4.918116 0
M  V30 53 H 4.187725 -4.345854 1.284906 0
M  V30 54 H 3.845681 -2.127610 0.388591 0
M  V30 55 H 4.190195 3.132917 3.413335 0
M  V30 56 H 4.662170 2.889952 1.731191 0
M  V30 57 H 2.699303 4.213678 1.825245 0
M  V30 58 H 2.435886 2.697799 0.950463 0
M  V30 59 H 1.967703 1.159044 3.552259 0
M  V30 60 H 1.032212 1.115842 1.940677 0
M  V30 61 H 0.008074 1.978676 4.673237 0
M  V30 62 H -0.303110 0.364911 4.015057 0
M  V30 63 H -3.190388 2.406062 3.157223 0
M  V30 64 H -2.354398 2.315713 4.725600 0
M  V30 65 H -2.212815 -0.252806 4.369028 0
M  V30 66 H -3.864630 0.381895 4.310539 0
M  V30 67 H -2.683499 -2.088711 3.138396 0
M  V30 68 H -4.355315 -1.514190 3.094383 0
M  V30 69 H -3.928475 -3.070464 1.238835 0
M  V30 70 H -4.449060 -1.428303 0.750640 0
M  V30 71 H -3.145707 -3.496639 -0.754188 0
M  V30 72 H -3.778514 -1.945764 -1.309990 0
M  V30 73 H -0.959230 -3.056770 -1.729790 0
M  V30 74 H -2.300219 -2.830802 -2.863378 0
M  V30 75 H 0.177463 -0.934216 -1.053346 0
M  V30 76 H -1.303689 -0.197938 -0.431828 0
M  V30 77 H 0.068562 1.622397 -1.204368 0
M  V30 78 H -1.315012 1.403111 -2.340194 0
M  V30 79 H 1.569584 1.482581 -4.529793 0
M  V30 80 H 1.607609 2.482903 -3.050222 0
M  V30 81 H 0.274459 3.483812 -4.811531 0
M  V30 82 H -0.813957 3.091363 -3.450700 0
M  V30 83 H -1.636293 3.597563 -6.073131 0
M  V30 84 H -2.605334 2.860857 -4.773613 0
M  V30 85 H -2.949300 0.813914 -6.343684 0
M  V30 86 H -2.017584 1.692468 -7.563515 0
M  V30 87 H -4.337597 3.527645 -5.580769 0
M  V30 88 H -5.153118 1.890195 -5.767794 0
M  V30 89 H -6.646461 3.820400 -6.032813 0
M  V30 90 H -5.642001 4.489576 -7.338097 0
M  V30 91 H -6.676236 1.883159 -9.671644 0
M  V30 92 H -5.513822 3.272858 -9.407536 0
M  V30 93 H -5.216296 1.642729 -8.743691 0
M  V30 94 H 4.443505 -0.539754 4.260325 0
M  V30 95 H 4.784311 -2.711659 5.220947 0
M  V30 END ATOM
M  V30 BEGIN BOND
M  V30 1 1 1 2
M  V30 2 1 2 3
M  V30 3 1 3 4
M  V30 4 1 4 5
M  V30 5 1 5 6
M  V30 6 2 6 7
M  V30 7 1 7 8
M  V30 8 2 8 9
M  V30 9 1 9 10
M  V30 10 2 10 11
M  V30 11 1 10 12
M  V30 12 1 12 13
M  V30 13 1 13 14
M  V30 14 1 14 15
M  V30 15 1 15 16
M  V30 16 1 16 17
M  V30 17 1 17 18
M  V30 18 1 18 19
M  V30 19 1 19 20
M  V30 20 1 20 21
M  V30 21 1 21 22
M  V30 22 1 22 23
M  V30 23 1 23 24
M  V30 24 1 24 25
M  V30 25 1 25 26
M  V30 26 1 26 27
M  V30 27 1 27 28
M  V30 28 1 28 29
M  V30 29 1 29 30
M  V30 30 1 30 31
M  V30 31 1 31 32
M  V30 32 1 32 33
M  V30 33 1 33 34
M  V30 34 1 34 35
M  V30 35 1 35 36
M  V30 36 1 36 37
M  V30 37 1 37 38
M  V30 38 1 38 39
M  V30 39 1 39 40
M  V30 40 1 9 41
M  V30 41 2 41 42
M  V30 42 1 42 6
M  V30 43 1 1 43
M  V30 44 1 1 44
M  V30 45 1 1 45
M  V30 46 1 2 46
M  V30 47 1 2 47
M  V30 48 1 3 48
M  V30 49 1 3 49
M  V30 50 1 4 50
M  V30 51 1 4 51
M  V30 52 1 5 52
M  V30 53 1 7 53
M  V30 54 1 8 54
M  V30 55 1 13 55
M  V30 56 1 13 56
M  V30 57 1 14 57
M  V30 58 1 14 58
M  V30 59 1 16 59
M  V30 60 1 16 60
M  V30 61 1 17 61
M  V30 62 1 17 62
M  V30 63 1 19 63
M  V30 64 1 19 64
M  V30 65 1 20 65
M  V30 66 1 20 66
M  V30 67 1 22 67
M  V30 68 1 22 68
M  V30 69 1 23 69
M  V30 70 1 23 70
M  V30 71 1 25 71
M  V30 72 1 25 72
M  V30 73 1 26 73
M  V30 74 1 26 74
M  V30 75 1 28 75
M  V30 76 1 28 76
M  V30 77 1 29 77
M  V30 78 1 29 78
M  V30 79 1 31 79
M  V30 80 1 31 80
M  V30 81 1 32 81
M  V30 82 1 32 82
M  V30 83 1 34 83
M  V30 84 1 34 84
M  V30 85 1 35 85
M  V30 86 1 35 86
M  V30 87 1 37 87
M  V30 88 1 37 88
M  V30 89 1 38 89
M  V30 90 1 38 90
M  V30 91 1 40 91
M  V30 92 1 40 92
M  V30 93 1 40 93
M  V30 94 1 41 94
M  V30 95 1 42 95
M  V30 END BOND
M  V30 END CTAB
M  END
>  <Dataset>  (95) 
OralDrugs

>  <Ligand_Instance>  (95) 
nan

>  <PDB_ID>  (95) 
nan

>  <Standardized_SMILES>  (95) 
CCCCNc1ccc(C(=O)OCCOCCOCCOCCOCCOCCOCCOCCOCCOC)cc1

>  <Name>  (95) 
Benzonatate

>  <Pocket>  (95) 
nan

>  <ATP_Site>  (95) 
nan

>  <Peripheral>  (95) 
nan

>  <Num_H_Atoms_ProtBoundConf>  (95) 
nan

>  <Num_Resolved_Atoms>  (95) 
nan

>  <Num_Not_Resolved_Atoms>  (95) 
nan

$$$$
CHEMBL3545985
     RDKit          3D

  0  0  0  0  0  0  0  0  0  0999 V3000
M  V30 BEGIN CTAB
M  V30 COUNTS 39 40 0 0 0
M  V30 BEGIN ATOM
M  V30 1 C -2.921306 -0.665089 0.947171 0
M  V30 2 C -1.423936 -0.798513 0.796615 0 CFG=1
M  V30 3 C -1.087389 -2.255255 0.745412 0
M  V30 4 C 0.335835 -2.567951 0.600801 0
M  V30 5 C 1.045069 -2.740332 -0.571263 0
M  V30 6 C 2.370895 -3.029715 -0.654161 0
M  V30 7 C 3.064121 -3.162150 0.515608 0
M  V30 8 C 2.460239 -3.011748 1.748631 0
M  V30 9 C 1.111925 -2.718650 1.755114 0
M  V30 10 N -0.883085 -0.069854 -0.288418 0
M  V30 11 C -1.381556 -0.416967 -1.587889 0
M  V30 12 C -0.667312 1.322325 -0.097401 0
M  V30 13 C 0.266363 1.655398 1.005764 0
M  V30 14 C 1.630419 1.744470 0.713881 0
M  V30 15 C 2.614990 2.046113 1.626175 0
M  V30 16 C 2.235985 2.281334 2.937273 0
M  V30 17 C 0.882443 2.202204 3.270456 0
M  V30 18 C -0.067743 1.897725 2.326526 0
M  V30 19 H -3.214634 -1.291658 1.816751 0
M  V30 20 H -3.420322 -1.103712 0.064345 0
M  V30 21 H -3.240561 0.375340 1.158851 0
M  V30 22 H -0.965179 -0.393159 1.730746 0
M  V30 23 H -1.661094 -2.785301 -0.053226 0
M  V30 24 H -1.435136 -2.728572 1.702261 0
M  V30 25 H 0.478322 -2.632243 -1.486312 0
M  V30 26 H 2.886130 -3.156176 -1.586008 0
M  V30 27 H 4.121504 -3.391566 0.537919 0
M  V30 28 H 3.011769 -3.117242 2.672076 0
M  V30 29 H 0.630900 -2.598823 2.738770 0
M  V30 30 H -0.559162 -0.255019 -2.322838 0
M  V30 31 H -2.237202 0.198182 -1.914552 0
M  V30 32 H -1.629983 -1.494441 -1.626714 0
M  V30 33 H -0.216087 1.715421 -1.043778 0
M  V30 34 H -1.604410 1.905683 0.025440 0
M  V30 35 H 1.944938 1.563851 -0.305189 0
M  V30 36 H 3.649140 2.094569 1.314625 0
M  V30 37 H 2.997062 2.516931 3.654154 0
M  V30 38 H 0.568887 2.386496 4.306371 0
M  V30 39 H -1.103876 1.837288 2.572126 0
M  V30 END ATOM
M  V30 BEGIN BOND
M  V30 1 1 1 2
M  V30 2 1 2 3
M  V30 3 1 3 4
M  V30 4 2 4 5
M  V30 5 1 5 6
M  V30 6 2 6 7
M  V30 7 1 7 8
M  V30 8 2 8 9
M  V30 9 1 2 10
M  V30 10 1 10 11
M  V30 11 1 10 12
M  V30 12 1 12 13
M  V30 13 2 13 14
M  V30 14 1 14 15
M  V30 15 2 15 16
M  V30 16 1 16 17
M  V30 17 2 17 18
M  V30 18 1 9 4
M  V30 19 1 18 13
M  V30 20 1 1 19
M  V30 21 1 1 20
M  V30 22 1 1 21
M  V30 23 1 2 22 CFG=1
M  V30 24 1 3 23
M  V30 25 1 3 24
M  V30 26 1 5 25
M  V30 27 1 6 26
M  V30 28 1 7 27
M  V30 29 1 8 28
M  V30 30 1 9 29
M  V30 31 1 11 30
M  V30 32 1 11 31
M  V30 33 1 11 32
M  V30 34 1 12 33
M  V30 35 1 12 34
M  V30 36 1 14 35
M  V30 37 1 15 36
M  V30 38 1 16 37
M  V30 39 1 17 38
M  V30 40 1 18 39
M  V30 END BOND
M  V30 END CTAB
M  END
>  <Dataset>  (96) 
OralDrugs

>  <Ligand_Instance>  (96) 
nan

>  <PDB_ID>  (96) 
nan

>  <Standardized_SMILES>  (96) 
C[C@@H](Cc1ccccc1)N(C)Cc1ccccc1

>  <Name>  (96) 
Benzphetamine

>  <Pocket>  (96) 
nan

>  <ATP_Site>  (96) 
nan

>  <Peripheral>  (96) 
nan

>  <Num_H_Atoms_ProtBoundConf>  (96) 
nan

>  <Num_Resolved_Atoms>  (96) 
nan

>  <Num_Not_Resolved_Atoms>  (96) 
nan

$$$$
CHEMBL1201039
     RDKit          3D

  0  0  0  0  0  0  0  0  0  0999 V3000
M  V30 BEGIN CTAB
M  V30 COUNTS 40 42 0 0 0
M  V30 BEGIN ATOM
M  V30 1 N 2.875379 -4.844322 2.026932 0
M  V30 2 S 3.180135 -4.174000 0.474053 0
M  V30 3 O 2.641256 -5.171706 -0.535274 0
M  V30 4 O 4.640974 -3.947683 0.298567 0
M  V30 5 C 2.334687 -2.673014 0.230323 0
M  V30 6 C 1.412258 -2.495775 -0.779482 0
M  V30 7 C 0.708452 -1.356939 -1.037650 0
M  V30 8 C 0.961627 -0.305163 -0.199016 0
M  V30 9 C 1.873617 -0.419640 0.830611 0
M  V30 10 C 2.575591 -1.581139 1.075321 0
M  V30 11 Cl 3.729202 -1.713392 2.383307 0
M  V30 12 N 0.351334 0.970205 -0.290917 0
M  V30 13 C -0.504389 1.312223 -1.154063 0
M  V30 14 C -1.142685 2.643898 -1.251371 0
M  V30 15 S -0.766575 3.602285 0.223771 0
M  V30 16 C -1.566533 3.071379 1.711213 0
M  V30 17 C -1.219215 1.764261 2.252588 0
M  V30 18 C -0.183313 1.509169 3.112713 0
M  V30 19 C 0.141671 0.280166 3.653500 0
M  V30 20 C -0.645426 -0.819038 3.304571 0
M  V30 21 C -1.692506 -0.630392 2.451026 0
M  V30 22 C -1.982928 0.633578 1.928768 0
M  V30 23 N -0.969011 0.471676 -2.192244 0
M  V30 24 S -0.454888 -1.177432 -2.328348 0
M  V30 25 O -1.689152 -2.023031 -2.044292 0
M  V30 26 O 0.121906 -1.484396 -3.676548 0
M  V30 27 H 2.004474 -5.439160 2.054456 0
M  V30 28 H 2.930065 -4.146164 2.794636 0
M  V30 29 H 1.251990 -3.358834 -1.412731 0
M  V30 30 H 2.105428 0.390960 1.520716 0
M  V30 31 H -2.236553 2.565288 -1.438110 0
M  V30 32 H -0.651200 3.150358 -2.134140 0
M  V30 33 H -2.676759 3.087103 1.577643 0
M  V30 34 H -1.359638 3.835678 2.517814 0
M  V30 35 H 0.454585 2.324707 3.413894 0
M  V30 36 H 0.961971 0.115736 4.326534 0
M  V30 37 H -0.504805 -1.818593 3.649695 0
M  V30 38 H -2.385761 -1.400654 2.096825 0
M  V30 39 H -2.822164 0.799613 1.239994 0
M  V30 40 H -1.599622 0.603744 -2.969459 0
M  V30 END ATOM
M  V30 BEGIN BOND
M  V30 1 1 1 2
M  V30 2 2 2 3
M  V30 3 2 2 4
M  V30 4 1 2 5
M  V30 5 2 5 6
M  V30 6 1 6 7
M  V30 7 2 7 8
M  V30 8 1 8 9
M  V30 9 2 9 10
M  V30 10 1 10 11
M  V30 11 1 8 12
M  V30 12 2 12 13
M  V30 13 1 13 14
M  V30 14 1 14 15
M  V30 15 1 15 16
M  V30 16 1 16 17
M  V30 17 2 17 18
M  V30 18 1 18 19
M  V30 19 2 19 20
M  V30 20 1 20 21
M  V30 21 2 21 22
M  V30 22 1 13 23
M  V30 23 1 23 24
M  V30 24 2 24 25
M  V30 25 2 24 26
M  V30 26 1 10 5
M  V30 27 1 22 17
M  V30 28 1 24 7
M  V30 29 1 1 27
M  V30 30 1 1 28
M  V30 31 1 6 29
M  V30 32 1 9 30
M  V30 33 1 14 31
M  V30 34 1 14 32
M  V30 35 1 16 33
M  V30 36 1 16 34
M  V30 37 1 18 35
M  V30 38 1 19 36
M  V30 39 1 20 37
M  V30 40 1 21 38
M  V30 41 1 22 39
M  V30 42 1 23 40
M  V30 END BOND
M  V30 END CTAB
M  END
>  <Dataset>  (97) 
OralDrugs

>  <Ligand_Instance>  (97) 
nan

>  <PDB_ID>  (97) 
nan

>  <Standardized_SMILES>  (97) 
NS(=O)(=O)c1cc2c(cc1Cl)N=C(CSCc1ccccc1)NS2(=O)=O

>  <Name>  (97) 
Benzthiazide

>  <Pocket>  (97) 
nan

>  <ATP_Site>  (97) 
nan

>  <Peripheral>  (97) 
nan

>  <Num_H_Atoms_ProtBoundConf>  (97) 
nan

>  <Num_Resolved_Atoms>  (97) 
nan

>  <Num_Not_Resolved_Atoms>  (97) 
nan

$$$$
CHEMBL1201203
     RDKit          3D

  0  0  0  0  0  0  0  0  0  0999 V3000
M  V30 BEGIN CTAB
M  V30 COUNTS 48 51 0 0 0
M  V30 BEGIN ATOM
M  V30 1 C -1.398665 -4.796851 -1.419309 0
M  V30 2 N -1.413908 -3.361741 -1.468027 0
M  V30 3 C -0.085236 -2.785274 -1.415293 0 CFG=2
M  V30 4 C 0.338385 -3.100553 -0.015697 0
M  V30 5 C -0.930312 -3.034282 0.782981 0
M  V30 6 C -1.996920 -2.808044 -0.245064 0 CFG=1
M  V30 7 C -2.249839 -1.345784 -0.552005 0
M  V30 8 C -0.995294 -0.554432 -0.705334 0 CFG=1
M  V30 9 O -0.261582 -0.372593 0.420871 0
M  V30 10 C 0.071935 0.882512 0.806747 0
M  V30 11 C -0.458480 1.311967 2.111255 0
M  V30 12 C 0.326587 1.973095 3.056351 0
M  V30 13 C -0.082344 2.409244 4.294986 0
M  V30 14 C -1.413109 2.166649 4.640239 0
M  V30 15 C -2.244422 1.515434 3.747789 0
M  V30 16 C -1.753384 1.110831 2.524604 0
M  V30 17 C 1.527010 1.165184 0.803025 0
M  V30 18 C 2.355409 0.200355 1.356105 0
M  V30 19 C 3.738304 0.375439 1.399068 0
M  V30 20 C 4.327561 1.517223 0.891271 0
M  V30 21 C 3.483140 2.462272 0.346428 0
M  V30 22 C 2.127584 2.314603 0.292506 0
M  V30 23 C -0.137741 -1.317323 -1.699901 0
M  V30 24 H -0.418200 -5.248733 -1.581905 0
M  V30 25 H -1.754426 -5.188712 -0.424984 0
M  V30 26 H -2.126691 -5.205523 -2.159578 0
M  V30 27 H 0.581426 -3.243319 -2.154920 0
M  V30 28 H 1.134213 -2.437683 0.340697 0
M  V30 29 H 0.705151 -4.162270 -0.025579 0
M  V30 30 H -1.154320 -4.035587 1.251964 0
M  V30 31 H -0.910099 -2.292645 1.597984 0
M  V30 32 H -2.952159 -3.280150 0.010818 0
M  V30 33 H -3.000700 -0.962817 0.131131 0
M  V30 34 H -2.739066 -1.357292 -1.570972 0
M  V30 35 H -1.245722 0.407270 -1.199628 0
M  V30 36 H -0.363671 1.589724 0.050299 0
M  V30 37 H 1.375593 2.165001 2.785705 0
M  V30 38 H 0.613769 2.912072 4.948456 0
M  V30 39 H -1.724310 2.511825 5.612261 0
M  V30 40 H -3.279940 1.333081 4.030840 0
M  V30 41 H -2.440021 0.605691 1.860219 0
M  V30 42 H 2.016754 -0.718996 1.777635 0
M  V30 43 H 4.395735 -0.387153 1.836414 0
M  V30 44 H 5.396779 1.605284 0.947997 0
M  V30 45 H 3.923884 3.360358 -0.055166 0
M  V30 46 H 1.453542 3.046263 -0.131319 0
M  V30 47 H 0.926048 -0.949341 -1.622670 0
M  V30 48 H -0.544226 -1.161494 -2.714570 0
M  V30 END ATOM
M  V30 BEGIN BOND
M  V30 1 1 1 2
M  V30 2 1 2 3
M  V30 3 1 3 4
M  V30 4 1 4 5
M  V30 5 1 5 6
M  V30 6 1 6 7
M  V30 7 1 7 8
M  V30 8 1 8 9
M  V30 9 1 9 10
M  V30 10 1 10 11
M  V30 11 2 11 12
M  V30 12 1 12 13
M  V30 13 2 13 14
M  V30 14 1 14 15
M  V30 15 2 15 16
M  V30 16 1 10 17
M  V30 17 2 17 18
M  V30 18 1 18 19
M  V30 19 2 19 20
M  V30 20 1 20 21
M  V30 21 2 21 22
M  V30 22 1 8 23
M  V30 23 1 6 2
M  V30 24 1 16 11
M  V30 25 1 22 17
M  V30 26 1 23 3
M  V30 27 1 1 24
M  V30 28 1 1 25
M  V30 29 1 1 26
M  V30 30 1 3 27 CFG=3
M  V30 31 1 4 28
M  V30 32 1 4 29
M  V30 33 1 5 30
M  V30 34 1 5 31
M  V30 35 1 6 32 CFG=1
M  V30 36 1 7 33
M  V30 37 1 7 34
M  V30 38 1 8 35 CFG=3
M  V30 39 1 10 36
M  V30 40 1 12 37
M  V30 41 1 13 38
M  V30 42 1 14 39
M  V30 43 1 15 40
M  V30 44 1 16 41
M  V30 45 1 18 42
M  V30 46 1 19 43
M  V30 47 1 20 44
M  V30 48 1 21 45
M  V30 49 1 22 46
M  V30 50 1 23 47
M  V30 51 1 23 48
M  V30 END BOND
M  V30 END CTAB
M  END
>  <Dataset>  (98) 
OralDrugs

>  <Ligand_Instance>  (98) 
nan

>  <PDB_ID>  (98) 
nan

>  <Standardized_SMILES>  (98) 
CN1[C@@H]2CC[C@H]1C[C@@H](OC(c1ccccc1)c1ccccc1)C2

>  <Name>  (98) 
Benztropine

>  <Pocket>  (98) 
nan

>  <ATP_Site>  (98) 
nan

>  <Peripheral>  (98) 
nan

>  <Num_H_Atoms_ProtBoundConf>  (98) 
nan

>  <Num_Resolved_Atoms>  (98) 
nan

>  <Num_Not_Resolved_Atoms>  (98) 
nan

$$$$
CHEMBL29
     RDKit          3D

  0  0  0  0  0  0  0  0  0  0999 V3000
M  V30 BEGIN CTAB
M  V30 COUNTS 41 43 0 0 0
M  V30 BEGIN ATOM
M  V30 1 C -2.164888 -4.767352 1.301682 0
M  V30 2 C -0.874907 -4.041470 1.016855 0
M  V30 3 C -0.201063 -4.760075 -0.125707 0
M  V30 4 S -1.146774 -2.281280 0.664020 0
M  V30 5 C -0.197555 -1.630473 2.075416 0 CFG=2
M  V30 6 C 0.911544 -0.726572 1.783756 0 CFG=2
M  V30 7 N 1.046065 -0.195001 0.453428 0
M  V30 8 C 1.166845 1.185984 0.215202 0
M  V30 9 O 1.165464 2.054634 1.153289 0
M  V30 10 C 1.308473 1.790454 -1.137491 0
M  V30 11 C 1.403836 3.261516 -0.925413 0
M  V30 12 C 2.559236 3.990629 -0.729290 0
M  V30 13 C 2.509851 5.357083 -0.543686 0
M  V30 14 C 1.291555 6.038676 -0.549176 0
M  V30 15 C 0.100261 5.365942 -0.740421 0
M  V30 16 C 0.212423 3.984229 -0.922982 0
M  V30 17 C 1.813651 -1.782193 2.204488 0
M  V30 18 O 3.058936 -1.773821 2.464555 0
M  V30 19 N 0.747690 -2.719414 2.185393 0
M  V30 20 C 0.038486 -3.985884 2.205607 0 CFG=1
M  V30 21 C -0.709609 -4.024324 3.496212 0
M  V30 22 O -0.828960 -3.230250 4.491717 0
M  V30 23 O -1.536077 -4.493748 4.500735 0
M  V30 24 H -2.554952 -5.118921 0.316108 0
M  V30 25 H -1.890412 -5.686342 1.861574 0
M  V30 26 H -2.913673 -4.154209 1.829364 0
M  V30 27 H -0.972367 -5.274237 -0.754651 0
M  V30 28 H 0.482293 -4.131571 -0.712757 0
M  V30 29 H 0.417267 -5.558662 0.346934 0
M  V30 30 H -0.810577 -1.451985 2.980255 0
M  V30 31 H 0.917749 0.087083 2.567493 0
M  V30 32 H 1.053463 -0.857930 -0.351948 0
M  V30 33 H 2.255470 1.423932 -1.592219 0
M  V30 34 H 0.455762 1.564384 -1.805060 0
M  V30 35 H 3.474043 3.427755 -0.732267 0
M  V30 36 H 3.409209 5.922277 -0.391345 0
M  V30 37 H 1.229203 7.105681 -0.406209 0
M  V30 38 H -0.868966 5.823651 -0.756534 0
M  V30 39 H -0.726780 3.448389 -1.074505 0
M  V30 40 H 0.796419 -4.816349 2.174517 0
M  V30 41 H -1.874799 -5.466286 4.518143 0
M  V30 END ATOM
M  V30 BEGIN BOND
M  V30 1 1 1 2
M  V30 2 1 2 3
M  V30 3 1 2 4
M  V30 4 1 4 5
M  V30 5 1 5 6
M  V30 6 1 6 7
M  V30 7 1 7 8
M  V30 8 2 8 9
M  V30 9 1 8 10
M  V30 10 1 10 11
M  V30 11 2 11 12
M  V30 12 1 12 13
M  V30 13 2 13 14
M  V30 14 1 14 15
M  V30 15 2 15 16
M  V30 16 1 6 17
M  V30 17 2 17 18
M  V30 18 1 17 19
M  V30 19 1 19 20
M  V30 20 1 20 21
M  V30 21 2 21 22
M  V30 22 1 21 23
M  V30 23 1 20 2
M  V30 24 1 19 5
M  V30 25 1 16 11
M  V30 26 1 1 24
M  V30 27 1 1 25
M  V30 28 1 1 26
M  V30 29 1 3 27
M  V30 30 1 3 28
M  V30 31 1 3 29
M  V30 32 1 5 30 CFG=1
M  V30 33 1 6 31 CFG=1
M  V30 34 1 7 32
M  V30 35 1 10 33
M  V30 36 1 10 34
M  V30 37 1 12 35
M  V30 38 1 13 36
M  V30 39 1 14 37
M  V30 40 1 15 38
M  V30 41 1 16 39
M  V30 42 1 20 40 CFG=1
M  V30 43 1 23 41
M  V30 END BOND
M  V30 END CTAB
M  END
>  <Dataset>  (99) 
OralDrugs

>  <Ligand_Instance>  (99) 
nan

>  <PDB_ID>  (99) 
nan

>  <Standardized_SMILES>  (99) 
CC1(C)S[C@@H]2[C@H](NC(=O)Cc3ccccc3)C(=O)N2[C@H]1C(=O)O

>  <Name>  (99) 
Benzylpenicillin

>  <Pocket>  (99) 
nan

>  <ATP_Site>  (99) 
nan

>  <Peripheral>  (99) 
nan

>  <Num_H_Atoms_ProtBoundConf>  (99) 
nan

>  <Num_Resolved_Atoms>  (99) 
nan

>  <Num_Not_Resolved_Atoms>  (99) 
nan

$$$$
CHEMBL1008
     RDKit          3D

  0  0  0  0  0  0  0  0  0  0999 V3000
M  V30 BEGIN CTAB
M  V30 COUNTS 61 63 0 0 0
M  V30 BEGIN ATOM
M  V30 1 C 1.346007 -3.029272 4.953397 0
M  V30 2 C 0.448383 -3.313572 3.766214 0
M  V30 3 C -0.871417 -2.596993 3.884524 0
M  V30 4 C 1.138219 -2.786387 2.483904 0
M  V30 5 O 1.333546 -1.452374 2.612006 0
M  V30 6 C 1.961403 -0.714452 1.683152 0
M  V30 7 C 1.260185 -0.738617 0.320637 0
M  V30 8 C -0.018122 -0.027855 0.513235 0
M  V30 9 N -0.902620 0.143105 -0.584053 0
M  V30 10 C -0.280020 1.023515 -1.564203 0
M  V30 11 C -0.043340 2.390349 -1.058607 0
M  V30 12 C 1.049586 2.960415 -0.442849 0
M  V30 13 C 1.041506 4.277828 -0.040807 0
M  V30 14 C -0.047094 5.101090 -0.226299 0
M  V30 15 C -1.164312 4.579102 -0.837727 0
M  V30 16 C -1.131984 3.258426 -1.230909 0
M  V30 17 C -2.219902 -0.378336 -0.763542 0
M  V30 18 C -3.049686 -0.204912 -1.840326 0
M  V30 19 C -4.308785 -0.738085 -1.934465 0
M  V30 20 C -4.831411 -1.500585 -0.927300 0
M  V30 21 C -4.033693 -1.708135 0.186286 0
M  V30 22 C -2.773287 -1.151088 0.235585 0
M  V30 23 N 1.291104 -2.070983 -0.139554 0
M  V30 24 C 2.632124 -2.513369 -0.475586 0
M  V30 25 C 2.432694 -3.732898 -1.338260 0
M  V30 26 C 0.941070 -3.944754 -1.406327 0
M  V30 27 C 0.487448 -2.480591 -1.214222 0
M  V30 28 H 1.763133 -3.961338 5.380123 0
M  V30 29 H 0.701532 -2.575319 5.757297 0
M  V30 30 H 2.136975 -2.310858 4.648853 0
M  V30 31 H 0.264019 -4.386312 3.698409 0
M  V30 32 H -1.479260 -3.064162 4.694355 0
M  V30 33 H -1.430739 -2.744478 2.949447 0
M  V30 34 H -0.721035 -1.510136 4.100963 0
M  V30 35 H 0.401551 -3.067971 1.675404 0
M  V30 36 H 2.068601 -3.412882 2.423201 0
M  V30 37 H 3.003413 -1.144908 1.561025 0
M  V30 38 H 2.140628 0.348614 1.992052 0
M  V30 39 H 1.912248 -0.065400 -0.347296 0
M  V30 40 H -0.576211 -0.431619 1.406866 0
M  V30 41 H 0.259930 1.014741 0.883171 0
M  V30 42 H -0.889025 1.062129 -2.467661 0
M  V30 43 H 0.722640 0.610920 -1.831505 0
M  V30 44 H 1.873377 2.294966 -0.319979 0
M  V30 45 H 1.979148 4.572110 0.428418 0
M  V30 46 H 0.059497 6.115881 0.129172 0
M  V30 47 H -2.010137 5.212799 -0.984104 0
M  V30 48 H -2.067894 2.931670 -1.709184 0
M  V30 49 H -2.704097 0.384640 -2.671027 0
M  V30 50 H -4.902760 -0.555596 -2.818068 0
M  V30 51 H -5.813653 -1.901633 -1.030684 0
M  V30 52 H -4.488269 -2.315429 0.954069 0
M  V30 53 H -2.291997 -1.410781 1.166597 0
M  V30 54 H 3.175965 -2.787869 0.442374 0
M  V30 55 H 3.161142 -1.706114 -1.031326 0
M  V30 56 H 2.815342 -3.493603 -2.358929 0
M  V30 57 H 2.960830 -4.604566 -0.897208 0
M  V30 58 H 0.562512 -4.479219 -0.507196 0
M  V30 59 H 0.584603 -4.359613 -2.360718 0
M  V30 60 H 0.707118 -1.975922 -2.157363 0
M  V30 61 H -0.594542 -2.593931 -0.978016 0
M  V30 END ATOM
M  V30 BEGIN BOND
M  V30 1 1 1 2
M  V30 2 1 2 3
M  V30 3 1 2 4
M  V30 4 1 4 5
M  V30 5 1 5 6
M  V30 6 1 6 7
M  V30 7 1 7 8
M  V30 8 1 8 9
M  V30 9 1 9 10
M  V30 10 1 10 11
M  V30 11 2 11 12
M  V30 12 1 12 13
M  V30 13 2 13 14
M  V30 14 1 14 15
M  V30 15 2 15 16
M  V30 16 1 9 17
M  V30 17 2 17 18
M  V30 18 1 18 19
M  V30 19 2 19 20
M  V30 20 1 20 21
M  V30 21 2 21 22
M  V30 22 1 7 23
M  V30 23 1 23 24
M  V30 24 1 24 25
M  V30 25 1 25 26
M  V30 26 1 26 27
M  V30 27 1 16 11
M  V30 28 1 22 17
M  V30 29 1 27 23
M  V30 30 1 1 28
M  V30 31 1 1 29
M  V30 32 1 1 30
M  V30 33 1 2 31
M  V30 34 1 3 32
M  V30 35 1 3 33
M  V30 36 1 3 34
M  V30 37 1 4 35
M  V30 38 1 4 36
M  V30 39 1 6 37
M  V30 40 1 6 38
M  V30 41 1 7 39
M  V30 42 1 8 40
M  V30 43 1 8 41
M  V30 44 1 10 42
M  V30 45 1 10 43
M  V30 46 1 12 44
M  V30 47 1 13 45
M  V30 48 1 14 46
M  V30 49 1 15 47
M  V30 50 1 16 48
M  V30 51 1 18 49
M  V30 52 1 19 50
M  V30 53 1 20 51
M  V30 54 1 21 52
M  V30 55 1 22 53
M  V30 56 1 24 54
M  V30 57 1 24 55
M  V30 58 1 25 56
M  V30 59 1 25 57
M  V30 60 1 26 58
M  V30 61 1 26 59
M  V30 62 1 27 60
M  V30 63 1 27 61
M  V30 END BOND
M  V30 END CTAB
M  END
>  <Dataset>  (100) 
OralDrugs

>  <Ligand_Instance>  (100) 
nan

>  <PDB_ID>  (100) 
nan

>  <Standardized_SMILES>  (100) 
CC(C)COCC(CN(Cc1ccccc1)c1ccccc1)N1CCCC1

>  <Name>  (100) 
Bepridil

>  <Pocket>  (100) 
nan

>  <ATP_Site>  (100) 
nan

>  <Peripheral>  (100) 
nan

>  <Num_H_Atoms_ProtBoundConf>  (100) 
nan

>  <Num_Resolved_Atoms>  (100) 
nan

>  <Num_Not_Resolved_Atoms>  (100) 
nan

$$$$
CHEMBL4594271
     RDKit          3D

  0  0  0  0  0  0  0  0  0  0999 V3000
M  V30 BEGIN CTAB
M  V30 COUNTS 67 71 0 0 0
M  V30 BEGIN ATOM
M  V30 1 N 5.577278 -2.127971 4.089831 0
M  V30 2 C 5.517072 -1.796029 2.964931 0
M  V30 3 C 5.430665 -1.403084 1.577793 0
M  V30 4 C 6.497883 -1.647429 0.740416 0
M  V30 5 C 6.414466 -1.275457 -0.568212 0
M  V30 6 C 5.274248 -0.659410 -1.054646 0
M  V30 7 C 4.196563 -0.406417 -0.232820 0
M  V30 8 C 2.935156 0.269530 -0.754799 0
M  V30 9 N 3.296514 1.383355 -1.589153 0
M  V30 10 C 2.251184 2.213478 -2.047345 0
M  V30 11 C 1.306211 1.644441 -3.057972 0
M  V30 12 C 0.207916 2.642770 -3.461324 0
M  V30 13 C -0.124600 1.419521 -2.683430 0
M  V30 14 C 2.061322 -0.739920 -1.386679 0
M  V30 15 C 2.325330 -1.306085 -2.613516 0
M  V30 16 C 1.458930 -2.243849 -3.131957 0
M  V30 17 C 0.330936 -2.625737 -2.442751 0
M  V30 18 F -0.476061 -3.562649 -3.029347 0
M  V30 19 C 0.011028 -2.103624 -1.222615 0
M  V30 20 N -1.165564 -2.542140 -0.567554 0
M  V30 21 C -1.733866 -2.175305 0.677274 0
M  V30 22 O -1.132026 -1.321468 1.350934 0
M  V30 23 C -2.974279 -2.760948 1.171096 0
M  V30 24 C -3.785097 -3.719018 0.578195 0
M  V30 25 C -4.862006 -3.978588 1.402276 0
M  V30 26 C -5.996227 -4.925840 1.196623 0
M  V30 27 F -5.472071 -6.202672 1.158428 0
M  V30 28 F -6.632067 -4.672811 -0.004087 0
M  V30 29 F -6.862161 -4.817080 2.255627 0
M  V30 30 N -4.661908 -3.167637 2.462730 0
M  V30 31 N -3.566105 -2.454398 2.338750 0
M  V30 32 C -3.060596 -1.500162 3.275001 0
M  V30 33 C -1.954539 -1.666362 4.107011 0
M  V30 34 C -1.628700 -0.619497 4.943438 0
M  V30 35 C -2.343509 0.557470 4.982801 0
M  V30 36 C -3.439719 0.732441 4.163614 0
M  V30 37 C -4.241009 1.995766 4.176412 0
M  V30 38 N -3.696663 2.930616 3.208305 0
M  V30 39 C -3.781157 -0.302081 3.321074 0
M  V30 40 C 0.898828 -1.169694 -0.735319 0
M  V30 41 C 4.288366 -0.790657 1.108977 0
M  V30 42 H 7.403501 -2.129302 1.097829 0
M  V30 43 H 7.266387 -1.476427 -1.212460 0
M  V30 44 H 5.247798 -0.378591 -2.098476 0
M  V30 45 H 2.477316 0.718399 0.149976 0
M  V30 46 H 4.207856 1.793594 -1.399671 0
M  V30 47 H 1.671176 2.553838 -1.158339 0
M  V30 48 H 2.668432 3.173221 -2.470726 0
M  V30 49 H 1.756788 1.117790 -3.943130 0
M  V30 50 H 0.136990 3.604179 -2.919356 0
M  V30 51 H -0.093694 2.649978 -4.518097 0
M  V30 52 H -0.699967 0.634657 -3.200204 0
M  V30 53 H -0.385838 1.472664 -1.599523 0
M  V30 54 H 3.206032 -1.018853 -3.171051 0
M  V30 55 H 1.660687 -2.692265 -4.094209 0
M  V30 56 H -1.754093 -3.276042 -1.065369 0
M  V30 57 H -3.603022 -4.181734 -0.366714 0
M  V30 58 H -1.445655 -2.615973 4.018339 0
M  V30 59 H -0.760250 -0.770691 5.585475 0
M  V30 60 H -2.032033 1.350265 5.669859 0
M  V30 61 H -5.311066 1.827524 4.006939 0
M  V30 62 H -4.065535 2.456813 5.192327 0
M  V30 63 H -4.488666 3.261058 2.596818 0
M  V30 64 H -3.273085 3.770857 3.655440 0
M  V30 65 H -4.644661 -0.131065 2.694144 0
M  V30 66 H 0.722840 -0.716454 0.205941 0
M  V30 67 H 3.452559 -0.603023 1.781002 0
M  V30 END ATOM
M  V30 BEGIN BOND
M  V30 1 3 1 2
M  V30 2 1 2 3
M  V30 3 2 3 4
M  V30 4 1 4 5
M  V30 5 2 5 6
M  V30 6 1 6 7
M  V30 7 1 7 8
M  V30 8 1 8 9
M  V30 9 1 9 10
M  V30 10 1 10 11
M  V30 11 1 11 12
M  V30 12 1 12 13
M  V30 13 1 8 14
M  V30 14 2 14 15
M  V30 15 1 15 16
M  V30 16 2 16 17
M  V30 17 1 17 18
M  V30 18 1 17 19
M  V30 19 1 19 20
M  V30 20 1 20 21
M  V30 21 2 21 22
M  V30 22 1 21 23
M  V30 23 2 23 24
M  V30 24 1 24 25
M  V30 25 1 25 26
M  V30 26 1 26 27
M  V30 27 1 26 28
M  V30 28 1 26 29
M  V30 29 2 25 30
M  V30 30 1 30 31
M  V30 31 1 31 32
M  V30 32 2 32 33
M  V30 33 1 33 34
M  V30 34 2 34 35
M  V30 35 1 35 36
M  V30 36 1 36 37
M  V30 37 1 37 38
M  V30 38 2 36 39
M  V30 39 2 19 40
M  V30 40 2 7 41
M  V30 41 1 41 3
M  V30 42 1 13 11
M  V30 43 1 40 14
M  V30 44 1 31 23
M  V30 45 1 39 32
M  V30 46 1 4 42
M  V30 47 1 5 43
M  V30 48 1 6 44
M  V30 49 1 8 45
M  V30 50 1 9 46
M  V30 51 1 10 47
M  V30 52 1 10 48
M  V30 53 1 11 49
M  V30 54 1 12 50
M  V30 55 1 12 51
M  V30 56 1 13 52
M  V30 57 1 13 53
M  V30 58 1 15 54
M  V30 59 1 16 55
M  V30 60 1 20 56
M  V30 61 1 24 57
M  V30 62 1 33 58
M  V30 63 1 34 59
M  V30 64 1 35 60
M  V30 65 1 37 61
M  V30 66 1 37 62
M  V30 67 1 38 63
M  V30 68 1 38 64
M  V30 69 1 39 65
M  V30 70 1 40 66
M  V30 71 1 41 67
M  V30 END BOND
M  V30 END CTAB
M  END
>  <Dataset>  (101) 
OralDrugs

>  <Ligand_Instance>  (101) 
nan

>  <PDB_ID>  (101) 
nan

>  <Standardized_SMILES>  (101) 
N#Cc1cccc(C(NCC2CC2)c2ccc(F)c(NC(=O)c3cc(C(F)(F)F)nn3-c3cccc(CN)c3)c2)c1

>  <Name>  (101) 
Berotralstat

>  <Pocket>  (101) 
nan

>  <ATP_Site>  (101) 
nan

>  <Peripheral>  (101) 
nan

>  <Num_H_Atoms_ProtBoundConf>  (101) 
nan

>  <Num_Resolved_Atoms>  (101) 
nan

>  <Num_Not_Resolved_Atoms>  (101) 
nan

$$$$
CHEMBL1293
     RDKit          3D

  0  0  0  0  0  0  0  0  0  0999 V3000
M  V30 BEGIN CTAB
M  V30 COUNTS 96 97 0 0 0
M  V30 BEGIN ATOM
M  V30 1 C -3.240208 5.981123 -2.849432 0
M  V30 2 C -1.804660 5.680631 -3.060414 0
M  V30 3 C -1.266673 4.638772 -2.457478 0
M  V30 4 C -1.618495 3.593969 -1.580270 0
M  V30 5 C -2.630592 3.106927 -0.965887 0
M  V30 6 C -2.543139 1.958445 -0.086710 0
M  V30 7 C -1.272791 1.158517 0.028042 0
M  V30 8 C -3.602665 1.468740 0.516178 0
M  V30 9 C -3.683127 0.374318 1.444481 0
M  V30 10 C -4.446832 -0.374307 2.122306 0
M  V30 11 C -3.715227 -1.313914 2.963205 0
M  V30 12 C -2.215572 -1.484042 3.057715 0
M  V30 13 C -4.387720 -2.229004 3.715595 0
M  V30 14 C -3.726413 -3.141652 4.587753 0
M  V30 15 C -3.431037 -4.090128 5.434472 0
M  V30 16 C -2.042566 -4.190113 5.744177 0
M  V30 17 C -1.061194 -4.714202 6.385618 0
M  V30 18 C -1.672869 -5.715197 7.273822 0
M  V30 19 C 0.326990 -4.629020 6.042252 0
M  V30 20 C 1.554369 -4.583937 5.811612 0
M  V30 21 C 2.257827 -4.161643 4.633371 0
M  V30 22 C 3.247882 -3.880504 3.927205 0
M  V30 23 C 4.312138 -4.136028 4.995398 0
M  V30 24 C 3.129454 -3.441973 2.591242 0
M  V30 25 C 4.117267 -3.095115 1.790577 0
M  V30 26 C 4.125689 -2.605833 0.374887 0
M  V30 27 C 5.379240 -2.356709 -0.069575 0
M  V30 28 C 6.731759 -2.477308 0.584461 0
M  V30 29 C 5.672345 -1.853432 -1.424691 0
M  V30 30 C 4.910134 -2.705926 -2.424169 0
M  V30 31 C 3.527461 -3.012707 -1.954275 0
M  V30 32 C 3.158204 -2.295911 -0.673399 0
M  V30 33 C 1.738729 -2.645499 -0.289775 0
M  V30 34 C 3.092125 -0.786472 -0.994326 0
M  V30 35 C 0.139520 4.530301 -2.961911 0
M  V30 36 C 1.043745 5.429175 -2.154209 0
M  V30 37 C 0.695537 3.105373 -2.784508 0
M  V30 38 C 0.140054 4.836635 -4.423288 0
M  V30 39 C 0.049722 6.348901 -4.597957 0
M  V30 40 C -1.250608 6.783551 -3.921715 0
M  V30 41 H -3.822436 5.213566 -2.372670 0
M  V30 42 H -3.359194 6.932838 -2.262673 0
M  V30 43 H -3.718724 6.140242 -3.863300 0
M  V30 44 H -0.756946 3.041575 -1.296152 0
M  V30 45 H -3.568608 3.533876 -1.102059 0
M  V30 46 H -1.524747 0.064833 0.127372 0
M  V30 47 H -0.632455 1.564507 0.798056 0
M  V30 48 H -0.822051 1.190772 -1.026587 0
M  V30 49 H -4.586669 1.874962 0.367900 0
M  V30 50 H -2.633899 0.223243 1.597739 0
M  V30 51 H -5.420815 -0.062885 1.851239 0
M  V30 52 H -1.779780 -1.071030 3.963477 0
M  V30 53 H -1.695306 -1.032551 2.206641 0
M  V30 54 H -1.959636 -2.589984 2.933631 0
M  V30 55 H -5.455116 -2.230465 3.605975 0
M  V30 56 H -2.769076 -2.599704 4.590109 0
M  V30 57 H -4.415985 -4.390837 5.491143 0
M  V30 58 H -1.329626 -3.420438 5.321314 0
M  V30 59 H -1.468766 -5.324666 8.324329 0
M  V30 60 H -2.735377 -5.870746 7.092755 0
M  V30 61 H -1.110645 -6.698000 7.150900 0
M  V30 62 H 0.152111 -4.481861 4.949583 0
M  V30 63 H 1.653444 -4.964290 6.811239 0
M  V30 64 H 1.481919 -3.951697 3.810134 0
M  V30 65 H 5.304587 -3.985262 4.530104 0
M  V30 66 H 4.225776 -5.152615 5.414454 0
M  V30 67 H 4.237110 -3.339607 5.760874 0
M  V30 68 H 2.246953 -3.312995 2.038400 0
M  V30 69 H 5.050444 -3.232555 2.356393 0
M  V30 70 H 7.369949 -1.542528 0.392458 0
M  V30 71 H 7.334262 -3.267954 0.064489 0
M  V30 72 H 6.594846 -2.624469 1.652335 0
M  V30 73 H 5.524827 -0.759836 -1.568962 0
M  V30 74 H 6.751227 -1.992917 -1.723388 0
M  V30 75 H 4.945943 -2.284185 -3.441546 0
M  V30 76 H 5.500003 -3.668586 -2.460108 0
M  V30 77 H 2.784792 -2.683276 -2.747721 0
M  V30 78 H 3.376848 -4.079658 -1.807043 0
M  V30 79 H 1.349568 -1.907577 0.431023 0
M  V30 80 H 1.135042 -2.444882 -1.243427 0
M  V30 81 H 1.620170 -3.707912 -0.053304 0
M  V30 82 H 2.058427 -0.385877 -0.759132 0
M  V30 83 H 3.759751 -0.196117 -0.355217 0
M  V30 84 H 3.200204 -0.596273 -2.074441 0
M  V30 85 H 0.751560 6.471570 -2.200908 0
M  V30 86 H 2.118419 5.259105 -2.449820 0
M  V30 87 H 0.868889 5.114451 -1.079753 0
M  V30 88 H -0.064162 2.353177 -2.982647 0
M  V30 89 H 1.508774 3.048721 -3.567484 0
M  V30 90 H 1.150593 3.007356 -1.813501 0
M  V30 91 H -0.856263 4.469465 -4.839360 0
M  V30 92 H 1.009203 4.488734 -4.947013 0
M  V30 93 H 0.918555 6.814722 -4.154983 0
M  V30 94 H 0.002771 6.563499 -5.659192 0
M  V30 95 H -1.072528 7.622389 -3.193762 0
M  V30 96 H -2.001898 7.090598 -4.651676 0
M  V30 END ATOM
M  V30 BEGIN BOND
M  V30 1 1 1 2
M  V30 2 2 2 3
M  V30 3 1 3 4
M  V30 4 2 4 5
M  V30 5 1 5 6
M  V30 6 1 6 7
M  V30 7 2 6 8
M  V30 8 1 8 9
M  V30 9 2 9 10
M  V30 10 1 10 11
M  V30 11 1 11 12
M  V30 12 2 11 13
M  V30 13 1 13 14
M  V30 14 2 14 15
M  V30 15 1 15 16
M  V30 16 2 16 17
M  V30 17 1 17 18
M  V30 18 1 17 19
M  V30 19 2 19 20
M  V30 20 1 20 21
M  V30 21 2 21 22
M  V30 22 1 22 23
M  V30 23 1 22 24
M  V30 24 2 24 25
M  V30 25 1 25 26
M  V30 26 2 26 27
M  V30 27 1 27 28
M  V30 28 1 27 29
M  V30 29 1 29 30
M  V30 30 1 30 31
M  V30 31 1 31 32
M  V30 32 1 32 33
M  V30 33 1 32 34
M  V30 34 1 3 35
M  V30 35 1 35 36
M  V30 36 1 35 37
M  V30 37 1 35 38
M  V30 38 1 38 39
M  V30 39 1 39 40
M  V30 40 1 40 2
M  V30 41 1 32 26
M  V30 42 1 1 41
M  V30 43 1 1 42
M  V30 44 1 1 43
M  V30 45 1 4 44
M  V30 46 1 5 45
M  V30 47 1 7 46
M  V30 48 1 7 47
M  V30 49 1 7 48
M  V30 50 1 8 49
M  V30 51 1 9 50
M  V30 52 1 10 51
M  V30 53 1 12 52
M  V30 54 1 12 53
M  V30 55 1 12 54
M  V30 56 1 13 55
M  V30 57 1 14 56
M  V30 58 1 15 57
M  V30 59 1 16 58
M  V30 60 1 18 59
M  V30 61 1 18 60
M  V30 62 1 18 61
M  V30 63 1 19 62
M  V30 64 1 20 63
M  V30 65 1 21 64
M  V30 66 1 23 65
M  V30 67 1 23 66
M  V30 68 1 23 67
M  V30 69 1 24 68
M  V30 70 1 25 69
M  V30 71 1 28 70
M  V30 72 1 28 71
M  V30 73 1 28 72
M  V30 74 1 29 73
M  V30 75 1 29 74
M  V30 76 1 30 75
M  V30 77 1 30 76
M  V30 78 1 31 77
M  V30 79 1 31 78
M  V30 80 1 33 79
M  V30 81 1 33 80
M  V30 82 1 33 81
M  V30 83 1 34 82
M  V30 84 1 34 83
M  V30 85 1 34 84
M  V30 86 1 36 85
M  V30 87 1 36 86
M  V30 88 1 36 87
M  V30 89 1 37 88
M  V30 90 1 37 89
M  V30 91 1 37 90
M  V30 92 1 38 91
M  V30 93 1 38 92
M  V30 94 1 39 93
M  V30 95 1 39 94
M  V30 96 1 40 95
M  V30 97 1 40 96
M  V30 END BOND
M  V30 END CTAB
M  END
>  <Dataset>  (102) 
OralDrugs

>  <Ligand_Instance>  (102) 
nan

>  <PDB_ID>  (102) 
nan

>  <Standardized_SMILES>  (102) 
CC1=C(/C=C/C(C)=C/C=C/C(C)=C/C=C/C=C(C)/C=C/C=C(C)/C=C/C2=C(C)CCCC2(C)C)C(C)(C)CCC1

>  <Name>  (102) 
Beta Carotene

>  <Pocket>  (102) 
nan

>  <ATP_Site>  (102) 
nan

>  <Peripheral>  (102) 
nan

>  <Num_H_Atoms_ProtBoundConf>  (102) 
nan

>  <Num_Resolved_Atoms>  (102) 
nan

>  <Num_Not_Resolved_Atoms>  (102) 
nan

$$$$
CHEMBL95889
     RDKit          3D

  0  0  0  0  0  0  0  0  0  0999 V3000
M  V30 BEGIN CTAB
M  V30 COUNTS 20 19 0 0 0
M  V30 BEGIN ATOM
M  V30 1 C 0.437456 0.733245 -0.632242 0
M  V30 2 N 0.701674 0.279779 0.701930 0 CHG=1 VAL=4
M  V30 3 C -0.453823 0.314848 1.574615 0
M  V30 4 C 1.665474 1.211346 1.275083 0
M  V30 5 C 1.315050 -1.019003 0.737464 0
M  V30 6 C 0.476694 -2.104744 0.194743 0
M  V30 7 O 0.992299 -3.260205 0.213616 0
M  V30 8 O -0.783833 -2.007797 -0.322561 0
M  V30 9 H -0.189899 1.640661 -0.599821 0
M  V30 10 H 1.438753 0.979595 -1.074446 0
M  V30 11 H -0.008938 -0.013599 -1.291654 0
M  V30 12 H -1.114100 -0.549370 1.492243 0
M  V30 13 H -1.059407 1.219640 1.429854 0
M  V30 14 H -0.052596 0.289114 2.620325 0
M  V30 15 H 1.421791 1.488943 2.318495 0
M  V30 16 H 2.693903 0.792129 1.233594 0
M  V30 17 H 1.698360 2.166510 0.706468 0
M  V30 18 H 2.227849 -0.956061 0.084102 0
M  V30 19 H 1.665971 -1.221779 1.760532 0
M  V30 20 H -1.512583 -2.654373 -0.028904 0
M  V30 END ATOM
M  V30 BEGIN BOND
M  V30 1 1 1 2
M  V30 2 1 2 3
M  V30 3 1 2 4
M  V30 4 1 2 5
M  V30 5 1 5 6
M  V30 6 2 6 7
M  V30 7 1 6 8
M  V30 8 1 1 9
M  V30 9 1 1 10
M  V30 10 1 1 11
M  V30 11 1 3 12
M  V30 12 1 3 13
M  V30 13 1 3 14
M  V30 14 1 4 15
M  V30 15 1 4 16
M  V30 16 1 4 17
M  V30 17 1 5 18
M  V30 18 1 5 19
M  V30 19 1 8 20
M  V30 END BOND
M  V30 END CTAB
M  END
>  <Dataset>  (103) 
OralDrugs

>  <Ligand_Instance>  (103) 
nan

>  <PDB_ID>  (103) 
nan

>  <Standardized_SMILES>  (103) 
C[N+](C)(C)CC(=O)O

>  <Name>  (103) 
Betaine

>  <Pocket>  (103) 
nan

>  <ATP_Site>  (103) 
nan

>  <Peripheral>  (103) 
nan

>  <Num_H_Atoms_ProtBoundConf>  (103) 
nan

>  <Num_Resolved_Atoms>  (103) 
nan

>  <Num_Not_Resolved_Atoms>  (103) 
nan

$$$$
CHEMBL632
     RDKit          3D

  0  0  0  0  0  0  0  0  0  0999 V3000
M  V30 BEGIN CTAB
M  V30 COUNTS 57 60 0 0 0
M  V30 BEGIN ATOM
M  V30 1 C -2.952494 -3.720041 0.840926 0
M  V30 2 C -2.858310 -2.255149 0.849878 0 CFG=1
M  V30 3 C -1.724066 -1.848041 1.766245 0
M  V30 4 C -0.985203 -0.856428 0.933532 0 CFG=1
M  V30 5 C 0.469458 -0.722723 1.271953 0 CFG=2
M  V30 6 C 0.708318 -0.524201 2.734154 0
M  V30 7 C 2.184735 -0.239133 2.906422 0
M  V30 8 C 2.413388 1.088287 2.303848 0
M  V30 9 C 2.705952 2.133994 3.053091 0
M  V30 10 C 2.899998 3.372537 2.308536 0
M  V30 11 O 3.182597 4.423713 2.936309 0
M  V30 12 C 2.782598 3.458327 0.859119 0
M  V30 13 C 2.485362 2.322683 0.249835 0
M  V30 14 C 2.257299 0.978662 0.834896 0 CFG=1
M  V30 15 C 3.412991 0.125200 0.329098 0
M  V30 16 C 0.917384 0.478537 0.425683 0 CFG=2
M  V30 17 F -0.037868 1.456904 0.627700 0
M  V30 18 C 0.827279 0.056938 -0.992346 0 CFG=1
M  V30 19 O 1.756002 -0.914103 -1.282794 0
M  V30 20 C -0.533585 -0.439197 -1.403663 0
M  V30 21 C -1.139801 -1.424161 -0.476917 0 CFG=1
M  V30 22 C -0.478857 -2.790161 -0.566182 0
M  V30 23 C -2.618407 -1.558807 -0.474776 0 CFG=2
M  V30 24 O -3.193513 -0.290443 -0.391970 0
M  V30 25 C -3.235103 -2.275315 -1.588114 0
M  V30 26 O -3.985431 -1.287780 -1.701629 0
M  V30 27 C -3.724296 -3.147406 -2.674070 0
M  V30 28 O -3.026393 -4.374530 -2.757492 0
M  V30 29 H -3.699737 -4.007513 1.646290 0
M  V30 30 H -2.014231 -4.242404 1.194967 0
M  V30 31 H -3.287193 -4.234923 -0.047635 0
M  V30 32 H -3.785283 -1.788858 1.296892 0
M  V30 33 H -2.099039 -1.404424 2.730063 0
M  V30 34 H -1.079460 -2.687326 2.080739 0
M  V30 35 H -1.480670 0.112432 0.974453 0
M  V30 36 H 1.108906 -1.552247 0.925111 0
M  V30 37 H 0.451399 -1.454040 3.241465 0
M  V30 38 H 0.166848 0.361089 3.137724 0
M  V30 39 H 2.765633 -1.018320 2.411253 0
M  V30 40 H 2.353536 -0.222078 4.005354 0
M  V30 41 H 2.785838 2.039746 4.122841 0
M  V30 42 H 2.921501 4.366384 0.290206 0
M  V30 43 H 2.377916 2.297377 -0.828290 0
M  V30 44 H 3.274570 -0.947182 0.465488 0
M  V30 45 H 4.300541 0.415361 0.962749 0
M  V30 46 H 3.714174 0.418193 -0.695851 0
M  V30 47 H 0.980246 0.989006 -1.612490 0
M  V30 48 H 1.906853 -1.114720 -2.220122 0
M  V30 49 H -0.336109 -0.990682 -2.371217 0
M  V30 50 H -1.203557 0.415451 -1.588188 0
M  V30 51 H 0.348430 -2.770473 -1.333729 0
M  V30 52 H -1.162361 -3.576639 -0.932630 0
M  V30 53 H -0.048996 -3.138613 0.383188 0
M  V30 54 H -3.120520 0.264204 -1.184726 0
M  V30 55 H -3.702089 -2.634875 -3.675090 0
M  V30 56 H -4.781163 -3.458579 -2.539612 0
M  V30 57 H -2.104001 -4.177260 -3.069388 0
M  V30 END ATOM
M  V30 BEGIN BOND
M  V30 1 1 1 2
M  V30 2 1 2 3
M  V30 3 1 3 4
M  V30 4 1 4 5
M  V30 5 1 5 6
M  V30 6 1 6 7
M  V30 7 1 7 8
M  V30 8 2 8 9
M  V30 9 1 9 10
M  V30 10 2 10 11
M  V30 11 1 10 12
M  V30 12 2 12 13
M  V30 13 1 13 14
M  V30 14 1 14 15 CFG=3
M  V30 15 1 14 16
M  V30 16 1 16 17 CFG=3
M  V30 17 1 16 18
M  V30 18 1 18 19
M  V30 19 1 18 20
M  V30 20 1 20 21
M  V30 21 1 21 22 CFG=1
M  V30 22 1 21 23
M  V30 23 1 23 24 CFG=1
M  V30 24 1 23 25
M  V30 25 2 25 26
M  V30 26 1 25 27
M  V30 27 1 27 28
M  V30 28 1 23 2
M  V30 29 1 21 4
M  V30 30 1 16 5
M  V30 31 1 14 8
M  V30 32 1 1 29
M  V30 33 1 1 30
M  V30 34 1 1 31
M  V30 35 1 2 32 CFG=1
M  V30 36 1 3 33
M  V30 37 1 3 34
M  V30 38 1 4 35 CFG=3
M  V30 39 1 5 36 CFG=3
M  V30 40 1 6 37
M  V30 41 1 6 38
M  V30 42 1 7 39
M  V30 43 1 7 40
M  V30 44 1 9 41
M  V30 45 1 12 42
M  V30 46 1 13 43
M  V30 47 1 15 44
M  V30 48 1 15 45
M  V30 49 1 15 46
M  V30 50 1 18 47 CFG=3
M  V30 51 1 19 48
M  V30 52 1 20 49
M  V30 53 1 20 50
M  V30 54 1 22 51
M  V30 55 1 22 52
M  V30 56 1 22 53
M  V30 57 1 24 54
M  V30 58 1 27 55
M  V30 59 1 27 56
M  V30 60 1 28 57
M  V30 END BOND
M  V30 END CTAB
M  END
>  <Dataset>  (104) 
OralDrugs

>  <Ligand_Instance>  (104) 
nan

>  <PDB_ID>  (104) 
nan

>  <Standardized_SMILES>  (104) 
C[C@H]1C[C@H]2[C@@H]3CCC4=CC(=O)C=C[C@]4(C)[C@@]3(F)[C@@H](O)C[C@]2(C)[C@@]1(O)C(=O)CO

>  <Name>  (104) 
Betamethasone

>  <Pocket>  (104) 
nan

>  <ATP_Site>  (104) 
nan

>  <Peripheral>  (104) 
nan

>  <Num_H_Atoms_ProtBoundConf>  (104) 
nan

>  <Num_Resolved_Atoms>  (104) 
nan

>  <Num_Not_Resolved_Atoms>  (104) 
nan

$$$$
CHEMBL423
     RDKit          3D

  0  0  0  0  0  0  0  0  0  0999 V3000
M  V30 BEGIN CTAB
M  V30 COUNTS 51 52 0 0 0
M  V30 BEGIN ATOM
M  V30 1 C 1.698269 -5.945995 -1.078135 0
M  V30 2 C 2.158432 -4.622211 -1.752444 0
M  V30 3 C 3.637704 -4.536930 -1.368346 0
M  V30 4 N 1.348432 -3.615446 -1.159415 0
M  V30 5 C 1.204968 -2.351662 -1.722393 0
M  V30 6 C 2.372336 -1.409490 -1.760227 0
M  V30 7 O 3.398841 -1.939374 -2.535146 0
M  V30 8 C 1.986882 -0.088590 -2.387379 0
M  V30 9 O 0.980718 0.613127 -1.779789 0
M  V30 10 C 0.870997 1.150699 -0.525118 0
M  V30 11 C -0.394563 1.755011 -0.446503 0
M  V30 12 C -0.839284 2.408214 0.712072 0
M  V30 13 C 0.003097 2.456772 1.815966 0
M  V30 14 C -0.435236 3.142668 3.062910 0
M  V30 15 C -1.139169 2.156248 3.982467 0
M  V30 16 O -2.267965 1.585455 3.386088 0
M  V30 17 C -2.827418 0.718696 4.297040 0
M  V30 18 C -4.053868 0.023492 3.784485 0
M  V30 19 C -5.222431 0.937280 3.378607 0
M  V30 20 C -4.498583 0.075186 2.388793 0
M  V30 21 C 1.245097 1.863970 1.739233 0
M  V30 22 C 1.668914 1.225980 0.595261 0
M  V30 23 H 1.580814 -5.726734 -0.007585 0
M  V30 24 H 0.740214 -6.243831 -1.550221 0
M  V30 25 H 2.422976 -6.746473 -1.222453 0
M  V30 26 H 2.062698 -4.726417 -2.831860 0
M  V30 27 H 4.219645 -4.457381 -2.287112 0
M  V30 28 H 3.936666 -5.488811 -0.836851 0
M  V30 29 H 3.758983 -3.756103 -0.617501 0
M  V30 30 H 0.421660 -4.022153 -0.908633 0
M  V30 31 H 0.385139 -1.786485 -1.154805 0
M  V30 32 H 0.783719 -2.495184 -2.776019 0
M  V30 33 H 2.775218 -1.301909 -0.722011 0
M  V30 34 H 4.306202 -1.817664 -2.126120 0
M  V30 35 H 2.871596 0.565316 -2.534709 0
M  V30 36 H 1.639971 -0.354603 -3.424448 0
M  V30 37 H -1.189801 1.818894 -1.206882 0
M  V30 38 H -1.788786 2.888462 0.840888 0
M  V30 39 H -1.039272 4.028142 2.868990 0
M  V30 40 H 0.486790 3.449210 3.589083 0
M  V30 41 H -1.414701 2.682756 4.920491 0
M  V30 42 H -0.444945 1.348763 4.289661 0
M  V30 43 H -3.052376 1.309276 5.229824 0
M  V30 44 H -2.077789 -0.027886 4.598982 0
M  V30 45 H -4.365421 -0.886022 4.375042 0
M  V30 46 H -6.238113 0.633652 3.700947 0
M  V30 47 H -5.026685 2.032918 3.322523 0
M  V30 48 H -5.098271 -0.776748 2.001751 0
M  V30 49 H -3.859631 0.524596 1.591640 0
M  V30 50 H 1.944832 1.865101 2.556975 0
M  V30 51 H 2.610199 0.737510 0.417046 0
M  V30 END ATOM
M  V30 BEGIN BOND
M  V30 1 1 1 2
M  V30 2 1 2 3
M  V30 3 1 2 4
M  V30 4 1 4 5
M  V30 5 1 5 6
M  V30 6 1 6 7
M  V30 7 1 6 8
M  V30 8 1 8 9
M  V30 9 1 9 10
M  V30 10 2 10 11
M  V30 11 1 11 12
M  V30 12 2 12 13
M  V30 13 1 13 14
M  V30 14 1 14 15
M  V30 15 1 15 16
M  V30 16 1 16 17
M  V30 17 1 17 18
M  V30 18 1 18 19
M  V30 19 1 19 20
M  V30 20 1 13 21
M  V30 21 2 21 22
M  V30 22 1 22 10
M  V30 23 1 20 18
M  V30 24 1 1 23
M  V30 25 1 1 24
M  V30 26 1 1 25
M  V30 27 1 2 26
M  V30 28 1 3 27
M  V30 29 1 3 28
M  V30 30 1 3 29
M  V30 31 1 4 30
M  V30 32 1 5 31
M  V30 33 1 5 32
M  V30 34 1 6 33
M  V30 35 1 7 34
M  V30 36 1 8 35
M  V30 37 1 8 36
M  V30 38 1 11 37
M  V30 39 1 12 38
M  V30 40 1 14 39
M  V30 41 1 14 40
M  V30 42 1 15 41
M  V30 43 1 15 42
M  V30 44 1 17 43
M  V30 45 1 17 44
M  V30 46 1 18 45
M  V30 47 1 19 46
M  V30 48 1 19 47
M  V30 49 1 20 48
M  V30 50 1 20 49
M  V30 51 1 21 50
M  V30 52 1 22 51
M  V30 END BOND
M  V30 END CTAB
M  END
>  <Dataset>  (105) 
OralDrugs

>  <Ligand_Instance>  (105) 
nan

>  <PDB_ID>  (105) 
nan

>  <Standardized_SMILES>  (105) 
CC(C)NCC(O)COc1ccc(CCOCC2CC2)cc1

>  <Name>  (105) 
Betaxolol

>  <Pocket>  (105) 
nan

>  <ATP_Site>  (105) 
nan

>  <Peripheral>  (105) 
nan

>  <Num_H_Atoms_ProtBoundConf>  (105) 
nan

>  <Num_Resolved_Atoms>  (105) 
nan

>  <Num_Not_Resolved_Atoms>  (105) 
nan

$$$$
CHEMBL1482
     RDKit          3D

  0  0  0  0  0  0  0  0  0  0999 V3000
M  V30 BEGIN CTAB
M  V30 COUNTS 28 27 0 0 0
M  V30 BEGIN ATOM
M  V30 1 C 1.785887 -1.933903 0.522111 0
M  V30 2 C 0.422419 -1.556528 0.953652 0
M  V30 3 C -0.135015 -0.310133 0.409924 0
M  V30 4 N 0.588814 0.903626 0.609220 0 CHG=1 VAL=4
M  V30 5 C -0.327830 1.959342 0.140332 0
M  V30 6 C 0.923891 1.216350 1.961925 0
M  V30 7 C 1.768361 0.994571 -0.262163 0
M  V30 8 O -0.463218 -2.612986 0.633089 0
M  V30 9 C -1.146780 -3.370365 1.547090 0
M  V30 10 N -1.972060 -4.369212 0.961248 0
M  V30 11 O -1.212843 -3.385230 2.802380 0
M  V30 12 H 2.591391 -1.252344 0.809672 0
M  V30 13 H 1.864458 -2.213443 -0.555267 0
M  V30 14 H 2.022151 -2.906683 1.048313 0
M  V30 15 H 0.422964 -1.500240 2.066565 0
M  V30 16 H -1.133431 -0.155812 0.905316 0
M  V30 17 H -0.380152 -0.358806 -0.670976 0
M  V30 18 H -0.524726 1.716502 -0.940757 0
M  V30 19 H -1.320073 1.868706 0.641805 0
M  V30 20 H 0.099177 2.961776 0.220627 0
M  V30 21 H 2.002149 1.510467 1.996314 0
M  V30 22 H 0.707612 0.419346 2.696537 0
M  V30 23 H 0.376695 2.114220 2.353896 0
M  V30 24 H 1.805998 0.149746 -0.972734 0
M  V30 25 H 2.700521 1.100906 0.350755 0
M  V30 26 H 1.755290 1.904014 -0.897787 0
M  V30 27 H -2.524930 -4.998891 0.352039 0
M  V30 28 H -2.491115 -5.147982 1.419483 0
M  V30 END ATOM
M  V30 BEGIN BOND
M  V30 1 1 1 2
M  V30 2 1 2 3
M  V30 3 1 3 4
M  V30 4 1 4 5
M  V30 5 1 4 6
M  V30 6 1 4 7
M  V30 7 1 2 8
M  V30 8 1 8 9
M  V30 9 1 9 10
M  V30 10 2 9 11
M  V30 11 1 1 12
M  V30 12 1 1 13
M  V30 13 1 1 14
M  V30 14 1 2 15
M  V30 15 1 3 16
M  V30 16 1 3 17
M  V30 17 1 5 18
M  V30 18 1 5 19
M  V30 19 1 5 20
M  V30 20 1 6 21
M  V30 21 1 6 22
M  V30 22 1 6 23
M  V30 23 1 7 24
M  V30 24 1 7 25
M  V30 25 1 7 26
M  V30 26 1 10 27
M  V30 27 1 10 28
M  V30 END BOND
M  V30 END CTAB
M  END
>  <Dataset>  (106) 
OralDrugs

>  <Ligand_Instance>  (106) 
nan

>  <PDB_ID>  (106) 
nan

>  <Standardized_SMILES>  (106) 
CC(C[N+](C)(C)C)OC(N)=O

>  <Name>  (106) 
Bethanechol

>  <Pocket>  (106) 
nan

>  <ATP_Site>  (106) 
nan

>  <Peripheral>  (106) 
nan

>  <Num_H_Atoms_ProtBoundConf>  (106) 
nan

>  <Num_Resolved_Atoms>  (106) 
nan

>  <Num_Not_Resolved_Atoms>  (106) 
nan

$$$$
CHEMBL1201260
     RDKit          3D

  0  0  0  0  0  0  0  0  0  0999 V3000
M  V30 BEGIN CTAB
M  V30 COUNTS 28 28 0 0 0
M  V30 BEGIN ATOM
M  V30 1 C 0.885061 1.699014 2.524990 0
M  V30 2 N 1.147378 0.316176 2.211179 0
M  V30 3 C 0.212422 -0.532955 2.457890 0
M  V30 4 N -1.027640 -0.111046 3.017063 0
M  V30 5 C -1.551825 1.159905 2.577211 0
M  V30 6 N 0.506277 -1.901858 2.145043 0
M  V30 7 C 1.482573 -2.356220 1.150255 0
M  V30 8 C 1.122696 -1.893527 -0.213781 0
M  V30 9 C 0.262762 -2.718816 -0.950306 0
M  V30 10 C -0.189957 -2.482172 -2.229989 0
M  V30 11 C 0.241778 -1.326217 -2.845838 0
M  V30 12 C 1.089453 -0.485681 -2.156023 0
M  V30 13 C 1.523554 -0.753354 -0.875073 0
M  V30 14 H 1.962682 2.090839 2.447576 0
M  V30 15 H 0.761651 1.888037 3.608847 0
M  V30 16 H 0.428780 2.337497 1.806120 0
M  V30 17 H -1.459746 -0.794989 3.716858 0
M  V30 18 H -1.593664 1.276694 1.463033 0
M  V30 19 H -2.672090 0.958060 2.712154 0
M  V30 20 H -1.471888 2.028130 3.185171 0
M  V30 21 H -0.057872 -2.607752 2.707469 0
M  V30 22 H 2.506337 -2.035722 1.438832 0
M  V30 23 H 1.450188 -3.463705 1.168400 0
M  V30 24 H -0.103130 -3.650583 -0.492036 0
M  V30 25 H -0.847106 -3.166990 -2.720874 0
M  V30 26 H -0.059036 -1.054475 -3.848092 0
M  V30 27 H 1.467887 0.444216 -2.585087 0
M  V30 28 H 2.188078 -0.115492 -0.318385 0
M  V30 END ATOM
M  V30 BEGIN BOND
M  V30 1 1 1 2
M  V30 2 2 2 3
M  V30 3 1 3 4
M  V30 4 1 4 5
M  V30 5 1 3 6
M  V30 6 1 6 7
M  V30 7 1 7 8
M  V30 8 2 8 9
M  V30 9 1 9 10
M  V30 10 2 10 11
M  V30 11 1 11 12
M  V30 12 2 12 13
M  V30 13 1 13 8
M  V30 14 1 1 14
M  V30 15 1 1 15
M  V30 16 1 1 16
M  V30 17 1 4 17
M  V30 18 1 5 18
M  V30 19 1 5 19
M  V30 20 1 5 20
M  V30 21 1 6 21
M  V30 22 1 7 22
M  V30 23 1 7 23
M  V30 24 1 9 24
M  V30 25 1 10 25
M  V30 26 1 11 26
M  V30 27 1 12 27
M  V30 28 1 13 28
M  V30 END BOND
M  V30 END CTAB
M  END
>  <Dataset>  (107) 
OralDrugs

>  <Ligand_Instance>  (107) 
nan

>  <PDB_ID>  (107) 
nan

>  <Standardized_SMILES>  (107) 
C/N=C(\NC)NCc1ccccc1

>  <Name>  (107) 
Bethanidine

>  <Pocket>  (107) 
nan

>  <ATP_Site>  (107) 
nan

>  <Peripheral>  (107) 
nan

>  <Num_H_Atoms_ProtBoundConf>  (107) 
nan

>  <Num_Resolved_Atoms>  (107) 
nan

>  <Num_Not_Resolved_Atoms>  (107) 
nan

$$$$
CHEMBL512351
     RDKit          3D

  0  0  0  0  0  0  0  0  0  0999 V3000
M  V30 BEGIN CTAB
M  V30 COUNTS 54 56 0 0 0
M  V30 BEGIN ATOM
M  V30 1 C 6.009146 -4.716639 2.473079 0
M  V30 2 O 6.212458 -3.320077 2.229872 0
M  V30 3 C 5.067161 -2.539983 1.981670 0
M  V30 4 C 5.259642 -1.182277 1.744822 0
M  V30 5 C 4.142400 -0.378559 1.494723 0
M  V30 6 C 2.859710 -0.890462 1.476005 0
M  V30 7 N 1.726388 -0.052920 1.218245 0
M  V30 8 C 1.351635 0.073595 -0.146084 0
M  V30 9 O 2.060046 -0.566595 -0.977255 0
M  V30 10 C 0.217020 0.894269 -0.555520 0
M  V30 11 C -0.589729 1.610539 0.288988 0
M  V30 12 C -1.654262 2.375035 -0.143385 0
M  V30 13 C -1.952727 2.445499 -1.496596 0
M  V30 14 C -3.074635 3.251733 -1.948034 0
M  V30 15 N -3.112279 3.832445 -3.109223 0
M  V30 16 N -4.226377 3.450701 -1.110093 0
M  V30 17 C -4.883261 2.553323 -0.172400 0
M  V30 18 C -4.896265 4.750065 -1.161097 0
M  V30 19 C -1.142121 1.725292 -2.349574 0
M  V30 20 C -0.072068 0.956933 -1.914019 0
M  V30 21 C 2.694435 -2.239723 1.713703 0
M  V30 22 C 1.338533 -2.776425 1.693264 0
M  V30 23 O 0.379355 -1.999542 1.462300 0
M  V30 24 N 1.006276 -4.120121 1.915175 0
M  V30 25 C -0.408284 -4.317841 1.826105 0
M  V30 26 C -0.853532 -4.629736 0.538121 0
M  V30 27 C -2.214094 -4.848675 0.307153 0
M  V30 28 C -3.089109 -4.749178 1.371286 0
M  V30 29 Cl -4.814089 -5.014622 1.139733 0
M  V30 30 C -2.601890 -4.438823 2.624552 0
M  V30 31 N -1.290881 -4.234059 2.815824 0
M  V30 32 C 3.779655 -3.055424 1.963183 0
M  V30 33 H 5.620580 -5.210243 1.561912 0
M  V30 34 H 5.215360 -4.854768 3.259936 0
M  V30 35 H 6.924587 -5.196543 2.816694 0
M  V30 36 H 6.267606 -0.761317 1.756015 0
M  V30 37 H 4.252821 0.682219 1.306125 0
M  V30 38 H 1.202442 0.437725 1.978551 0
M  V30 39 H -0.374604 1.569356 1.346871 0
M  V30 40 H -2.242343 2.913089 0.608608 0
M  V30 41 H -2.282546 3.695956 -3.727060 0
M  V30 42 H -4.486642 1.517008 -0.208114 0
M  V30 43 H -5.969428 2.452717 -0.383098 0
M  V30 44 H -4.776882 2.984835 0.848554 0
M  V30 45 H -5.982427 4.688776 -1.045828 0
M  V30 46 H -4.695793 5.234991 -2.143628 0
M  V30 47 H -4.386227 5.370524 -0.387522 0
M  V30 48 H -1.368834 1.774313 -3.416264 0
M  V30 49 H 0.506924 0.425200 -2.671406 0
M  V30 50 H 1.762407 -4.804587 2.110719 0
M  V30 51 H -0.263723 -4.734977 -0.371856 0
M  V30 52 H -2.648987 -5.093639 -0.649748 0
M  V30 53 H -3.289069 -4.357852 3.474490 0
M  V30 54 H 3.677476 -4.103981 2.150223 0
M  V30 END ATOM
M  V30 BEGIN BOND
M  V30 1 1 1 2
M  V30 2 1 2 3
M  V30 3 2 3 4
M  V30 4 1 4 5
M  V30 5 2 5 6
M  V30 6 1 6 7
M  V30 7 1 7 8
M  V30 8 2 8 9
M  V30 9 1 8 10
M  V30 10 2 10 11
M  V30 11 1 11 12
M  V30 12 2 12 13
M  V30 13 1 13 14
M  V30 14 2 14 15 CFG=2
M  V30 15 1 14 16
M  V30 16 1 16 17
M  V30 17 1 16 18
M  V30 18 1 13 19
M  V30 19 2 19 20
M  V30 20 1 6 21
M  V30 21 1 21 22
M  V30 22 2 22 23
M  V30 23 1 22 24
M  V30 24 1 24 25
M  V30 25 2 25 26
M  V30 26 1 26 27
M  V30 27 2 27 28
M  V30 28 1 28 29
M  V30 29 1 28 30
M  V30 30 2 30 31
M  V30 31 2 21 32
M  V30 32 1 32 3
M  V30 33 1 20 10
M  V30 34 1 31 25
M  V30 35 1 1 33
M  V30 36 1 1 34
M  V30 37 1 1 35
M  V30 38 1 4 36
M  V30 39 1 5 37
M  V30 40 1 7 38
M  V30 41 1 11 39
M  V30 42 1 12 40
M  V30 43 1 15 41
M  V30 44 1 17 42
M  V30 45 1 17 43
M  V30 46 1 17 44
M  V30 47 1 18 45
M  V30 48 1 18 46
M  V30 49 1 18 47
M  V30 50 1 19 48
M  V30 51 1 20 49
M  V30 52 1 24 50
M  V30 53 1 26 51
M  V30 54 1 27 52
M  V30 55 1 30 53
M  V30 56 1 32 54
M  V30 END BOND
M  V30 END CTAB
M  END
>  <Dataset>  (108) 
OralDrugs

>  <Ligand_Instance>  (108) 
nan

>  <PDB_ID>  (108) 
nan

>  <Standardized_SMILES>  (108) 
COc1ccc(NC(=O)c2ccc(C(=N)N(C)C)cc2)c(C(=O)Nc2ccc(Cl)cn2)c1

>  <Name>  (108) 
Betrixaban

>  <Pocket>  (108) 
nan

>  <ATP_Site>  (108) 
nan

>  <Peripheral>  (108) 
nan

>  <Num_H_Atoms_ProtBoundConf>  (108) 
nan

>  <Num_Resolved_Atoms>  (108) 
nan

>  <Num_Not_Resolved_Atoms>  (108) 
nan

$$$$
CHEMBL1808388
     RDKit          3D

  0  0  0  0  0  0  0  0  0  0999 V3000
M  V30 BEGIN CTAB
M  V30 COUNTS 61 64 0 0 0
M  V30 BEGIN ATOM
M  V30 1 O 6.244445 -3.451479 3.781113 0
M  V30 2 C 5.775014 -4.041659 2.608151 0
M  V30 3 C 4.281202 -3.935381 2.476811 0 CFG=1
M  V30 4 O 3.956046 -2.591854 2.464379 0
M  V30 5 C 2.854556 -2.314130 1.678797 0 CFG=1
M  V30 6 C 2.448146 -0.911604 1.937963 0
M  V30 7 C 2.493940 -0.565420 3.294958 0
M  V30 8 C 2.141732 0.688766 3.699492 0
M  V30 9 C 1.741515 1.607723 2.758716 0
M  V30 10 Cl 1.313058 3.195216 3.309987 0
M  V30 11 C 1.670303 1.343263 1.410320 0
M  V30 12 C 1.235920 2.269338 0.331965 0
M  V30 13 C -0.252143 2.377969 0.304009 0
M  V30 14 C -1.097150 3.346310 0.798785 0
M  V30 15 C -2.457089 3.204945 0.659562 0
M  V30 16 C -3.072013 2.146519 0.048821 0
M  V30 17 O -4.456503 2.104318 -0.036377 0
M  V30 18 C -4.988962 0.947078 -0.696868 0
M  V30 19 C -6.477552 0.956129 -0.759098 0
M  V30 20 O -6.919494 -0.186334 -1.406346 0
M  V30 21 C -6.503314 -0.328733 -2.701521 0
M  V30 22 C -6.404408 -1.658832 -3.353012 0
M  V30 23 C -7.600804 -0.780425 -3.651964 0
M  V30 24 C -2.227354 1.173536 -0.449162 0
M  V30 25 C -0.861194 1.294894 -0.320423 0
M  V30 26 C 2.036988 0.064168 1.060001 0
M  V30 27 C 2.967670 -2.595065 0.235411 0 CFG=2
M  V30 28 O 1.716092 -2.890408 -0.317716 0
M  V30 29 C 3.854636 -3.785919 0.014110 0 CFG=1
M  V30 30 O 5.174946 -3.376602 -0.254967 0
M  V30 31 C 3.866265 -4.642823 1.222437 0 CFG=2
M  V30 32 O 2.546160 -5.099887 1.401215 0
M  V30 33 H 5.461963 -3.279822 4.353185 0
M  V30 34 H 6.040258 -5.134137 2.715590 0
M  V30 35 H 6.328970 -3.664776 1.732619 0
M  V30 36 H 3.830841 -4.387502 3.376548 0
M  V30 37 H 1.981144 -2.931408 2.058564 0
M  V30 38 H 2.807728 -1.266669 4.084931 0
M  V30 39 H 2.175704 0.960944 4.746248 0
M  V30 40 H 1.694226 3.287265 0.496025 0
M  V30 41 H 1.581748 1.864807 -0.636825 0
M  V30 42 H -0.578129 4.167071 1.264761 0
M  V30 43 H -3.018903 4.032833 1.089824 0
M  V30 44 H -4.566792 0.821528 -1.690063 0
M  V30 45 H -4.709003 0.100691 -0.004013 0
M  V30 46 H -6.915299 0.914679 0.276723 0
M  V30 47 H -6.901840 1.873258 -1.233096 0
M  V30 48 H -5.866442 0.453301 -3.157557 0
M  V30 49 H -5.633446 -1.818818 -4.128170 0
M  V30 50 H -6.680730 -2.595731 -2.828864 0
M  V30 51 H -8.597695 -1.046561 -3.223243 0
M  V30 52 H -7.637547 -0.398178 -4.677019 0
M  V30 53 H -2.702286 0.320482 -0.940946 0
M  V30 54 H -0.315352 0.457077 -0.757942 0
M  V30 55 H 2.014127 -0.241504 0.040188 0
M  V30 56 H 3.374815 -1.686333 -0.270811 0
M  V30 57 H 1.039244 -2.445303 0.281069 0
M  V30 58 H 3.471238 -4.380768 -0.864014 0
M  V30 59 H 5.599873 -4.054189 -0.844503 0
M  V30 60 H 4.469271 -5.551001 1.017084 0
M  V30 61 H 2.223846 -5.595468 0.609587 0
M  V30 END ATOM
M  V30 BEGIN BOND
M  V30 1 1 1 2
M  V30 2 1 2 3
M  V30 3 1 3 4
M  V30 4 1 4 5
M  V30 5 1 5 6
M  V30 6 2 6 7
M  V30 7 1 7 8
M  V30 8 2 8 9
M  V30 9 1 9 10
M  V30 10 1 9 11
M  V30 11 1 11 12
M  V30 12 1 12 13
M  V30 13 2 13 14
M  V30 14 1 14 15
M  V30 15 2 15 16
M  V30 16 1 16 17
M  V30 17 1 17 18
M  V30 18 1 18 19
M  V30 19 1 19 20
M  V30 20 1 20 21
M  V30 21 1 21 22
M  V30 22 1 22 23
M  V30 23 1 16 24
M  V30 24 2 24 25
M  V30 25 2 11 26
M  V30 26 1 5 27
M  V30 27 1 27 28
M  V30 28 1 27 29
M  V30 29 1 29 30
M  V30 30 1 29 31
M  V30 31 1 31 32
M  V30 32 1 31 3
M  V30 33 1 26 6
M  V30 34 1 25 13
M  V30 35 1 23 21
M  V30 36 1 1 33
M  V30 37 1 2 34
M  V30 38 1 2 35
M  V30 39 1 3 36 CFG=1
M  V30 40 1 5 37 CFG=1
M  V30 41 1 7 38
M  V30 42 1 8 39
M  V30 43 1 12 40
M  V30 44 1 12 41
M  V30 45 1 14 42
M  V30 46 1 15 43
M  V30 47 1 18 44
M  V30 48 1 18 45
M  V30 49 1 19 46
M  V30 50 1 19 47
M  V30 51 1 21 48
M  V30 52 1 22 49
M  V30 53 1 22 50
M  V30 54 1 23 51
M  V30 55 1 23 52
M  V30 56 1 24 53
M  V30 57 1 25 54
M  V30 58 1 26 55
M  V30 59 1 27 56 CFG=3
M  V30 60 1 28 57
M  V30 61 1 29 58 CFG=3
M  V30 62 1 30 59
M  V30 63 1 31 60 CFG=3
M  V30 64 1 32 61
M  V30 END BOND
M  V30 END CTAB
M  END
>  <Dataset>  (109) 
OralDrugs

>  <Ligand_Instance>  (109) 
nan

>  <PDB_ID>  (109) 
nan

>  <Standardized_SMILES>  (109) 
OC[C@H]1O[C@@H](c2ccc(Cl)c(Cc3ccc(OCCOC4CC4)cc3)c2)[C@H](O)[C@@H](O)[C@@H]1O

>  <Name>  (109) 
Bexagliflozin

>  <Pocket>  (109) 
nan

>  <ATP_Site>  (109) 
nan

>  <Peripheral>  (109) 
nan

>  <Num_H_Atoms_ProtBoundConf>  (109) 
nan

>  <Num_Resolved_Atoms>  (109) 
nan

>  <Num_Not_Resolved_Atoms>  (109) 
nan

$$$$
CHEMBL1023
     RDKit          3D

  0  0  0  0  0  0  0  0  0  0999 V3000
M  V30 BEGIN CTAB
M  V30 COUNTS 54 56 0 0 0
M  V30 BEGIN ATOM
M  V30 1 C 1.312931 -3.015463 -0.285208 0
M  V30 2 C 1.621373 -1.736168 -0.034833 0
M  V30 3 C 3.003770 -1.522574 -0.377891 0
M  V30 4 C 3.643856 -0.327842 -0.618369 0
M  V30 5 C 4.964237 -0.045881 -0.865112 0
M  V30 6 C 5.751304 -1.175135 -0.866401 0
M  V30 7 C 7.183249 -1.033924 -1.114693 0
M  V30 8 O 8.016004 -1.958357 -1.145536 0
M  V30 9 O 7.793995 0.186927 -1.351555 0
M  V30 10 C 5.258398 -2.438914 -0.644419 0
M  V30 11 C 3.911658 -2.582337 -0.408183 0
M  V30 12 C 0.501378 -0.983690 0.456010 0
M  V30 13 C -0.756538 -1.501492 0.117246 0
M  V30 14 C -1.954975 -0.956895 0.533136 0
M  V30 15 C -1.872889 0.162370 1.327788 0
M  V30 16 C -0.675073 0.728422 1.704529 0
M  V30 17 C 0.490086 0.137678 1.258619 0
M  V30 18 C 1.718631 0.733790 1.774548 0
M  V30 19 C -3.104924 0.827780 1.826618 0
M  V30 20 C -3.681558 1.835625 0.890221 0
M  V30 21 C -2.800609 1.539138 3.138784 0
M  V30 22 C -4.082142 -0.297846 2.124232 0
M  V30 23 C -4.409263 -1.064290 0.888796 0
M  V30 24 C -3.244453 -1.568737 0.128771 0
M  V30 25 C -3.082536 -3.068274 0.418397 0
M  V30 26 C -3.420419 -1.449174 -1.363751 0
M  V30 27 H 0.541393 -3.740494 -0.254108 0
M  V30 28 H 0.536903 -3.738444 -0.252260 0
M  V30 29 H 2.965377 0.507516 -0.654033 0
M  V30 30 H 5.304754 0.952800 -1.032895 0
M  V30 31 H 8.535650 0.286207 -2.035065 0
M  V30 32 H 5.917846 -3.296300 -0.655665 0
M  V30 33 H 3.596608 -3.624656 -0.239437 0
M  V30 34 H -0.922725 -2.380558 -0.515939 0
M  V30 35 H -0.666015 1.607036 2.329541 0
M  V30 36 H 1.516841 1.108975 2.834733 0
M  V30 37 H 2.106090 1.595842 1.208304 0
M  V30 38 H 2.530986 0.008868 1.924533 0
M  V30 39 H -3.839146 1.475936 -0.132034 0
M  V30 40 H -3.099513 2.776148 0.933777 0
M  V30 41 H -4.695830 2.084383 1.279931 0
M  V30 42 H -2.039963 1.017313 3.726581 0
M  V30 43 H -2.470901 2.573795 2.888495 0
M  V30 44 H -3.763560 1.645375 3.682127 0
M  V30 45 H -4.995757 0.122305 2.549744 0
M  V30 46 H -3.559234 -0.971256 2.847305 0
M  V30 47 H -5.091257 -0.443415 0.237895 0
M  V30 48 H -5.074435 -1.915854 1.219854 0
M  V30 49 H -2.595693 -3.541709 -0.457228 0
M  V30 50 H -4.096798 -3.530661 0.486851 0
M  V30 51 H -2.477495 -3.228847 1.325290 0
M  V30 52 H -4.224561 -0.760181 -1.654511 0
M  V30 53 H -3.660904 -2.418835 -1.843661 0
M  V30 54 H -2.473197 -1.119478 -1.851169 0
M  V30 END ATOM
M  V30 BEGIN BOND
M  V30 1 2 1 2
M  V30 2 1 2 3
M  V30 3 2 3 4
M  V30 4 1 4 5
M  V30 5 2 5 6
M  V30 6 1 6 7
M  V30 7 2 7 8
M  V30 8 1 7 9
M  V30 9 1 6 10
M  V30 10 2 10 11
M  V30 11 1 2 12
M  V30 12 2 12 13
M  V30 13 1 13 14
M  V30 14 2 14 15
M  V30 15 1 15 16
M  V30 16 2 16 17
M  V30 17 1 17 18
M  V30 18 1 15 19
M  V30 19 1 19 20
M  V30 20 1 19 21
M  V30 21 1 19 22
M  V30 22 1 22 23
M  V30 23 1 23 24
M  V30 24 1 24 25
M  V30 25 1 24 26
M  V30 26 1 11 3
M  V30 27 1 17 12
M  V30 28 1 24 14
M  V30 29 1 1 27
M  V30 30 1 1 28
M  V30 31 1 4 29
M  V30 32 1 5 30
M  V30 33 1 9 31
M  V30 34 1 10 32
M  V30 35 1 11 33
M  V30 36 1 13 34
M  V30 37 1 16 35
M  V30 38 1 18 36
M  V30 39 1 18 37
M  V30 40 1 18 38
M  V30 41 1 20 39
M  V30 42 1 20 40
M  V30 43 1 20 41
M  V30 44 1 21 42
M  V30 45 1 21 43
M  V30 46 1 21 44
M  V30 47 1 22 45
M  V30 48 1 22 46
M  V30 49 1 23 47
M  V30 50 1 23 48
M  V30 51 1 25 49
M  V30 52 1 25 50
M  V30 53 1 25 51
M  V30 54 1 26 52
M  V30 55 1 26 53
M  V30 56 1 26 54
M  V30 END BOND
M  V30 END CTAB
M  END
>  <Dataset>  (110) 
OralDrugs

>  <Ligand_Instance>  (110) 
nan

>  <PDB_ID>  (110) 
nan

>  <Standardized_SMILES>  (110) 
C=C(c1ccc(C(=O)O)cc1)c1cc2c(cc1C)C(C)(C)CCC2(C)C

>  <Name>  (110) 
Bexarotene

>  <Pocket>  (110) 
nan

>  <ATP_Site>  (110) 
nan

>  <Peripheral>  (110) 
nan

>  <Num_H_Atoms_ProtBoundConf>  (110) 
nan

>  <Num_Resolved_Atoms>  (110) 
nan

>  <Num_Not_Resolved_Atoms>  (110) 
nan

$$$$
CHEMBL264374
     RDKit          3D

  0  0  0  0  0  0  0  0  0  0999 V3000
M  V30 BEGIN CTAB
M  V30 COUNTS 45 46 0 0 0
M  V30 BEGIN ATOM
M  V30 1 C -2.790768 -4.025068 3.556836 0
M  V30 2 C -2.179493 -2.942041 2.705490 0
M  V30 3 C -0.726470 -3.259894 2.382146 0
M  V30 4 O -2.219098 -1.686652 3.356728 0
M  V30 5 C -1.716054 -0.538794 2.771612 0
M  V30 6 C -2.477850 0.290378 1.985500 0
M  V30 7 C -1.853511 1.402908 1.462575 0
M  V30 8 C -0.516543 1.777565 1.650419 0
M  V30 9 C -0.060764 3.010610 1.043959 0
M  V30 10 C 0.380805 3.033828 -0.361300 0
M  V30 11 N 1.458177 2.212721 -0.773360 0
M  V30 12 C 1.699464 0.824274 -0.858815 0
M  V30 13 O 0.736761 0.105743 -0.498905 0
M  V30 14 C 2.932031 0.202098 -1.314921 0
M  V30 15 C 4.066198 0.861884 -1.737987 0
M  V30 16 C 5.201169 0.214465 -2.157775 0
M  V30 17 C 5.264754 -1.157331 -2.177637 0
M  V30 18 Cl 6.660242 -2.063160 -2.693479 0
M  V30 19 C 4.143095 -1.837512 -1.759156 0
M  V30 20 C 3.016496 -1.166795 -1.342542 0
M  V30 21 C 0.188615 0.877044 2.464707 0
M  V30 22 C -0.389686 -0.247553 3.010362 0
M  V30 23 C -2.924352 -2.930676 1.410438 0
M  V30 24 O -2.877056 -4.068964 0.839841 0
M  V30 25 O -3.695997 -2.421526 0.354249 0
M  V30 26 H -3.830532 -4.226620 3.232341 0
M  V30 27 H -2.203574 -4.969587 3.396445 0
M  V30 28 H -2.759074 -3.700862 4.605332 0
M  V30 29 H -0.100883 -3.295577 3.287027 0
M  V30 30 H -0.700425 -4.193554 1.794401 0
M  V30 31 H -0.399265 -2.438370 1.689075 0
M  V30 32 H -3.500658 0.082192 1.790713 0
M  V30 33 H -2.489878 2.039581 0.842340 0
M  V30 34 H 0.753204 3.446936 1.691935 0
M  V30 35 H -0.920281 3.745232 1.118586 0
M  V30 36 H 0.604945 4.120531 -0.596817 0
M  V30 37 H -0.508656 2.795470 -1.014094 0
M  V30 38 H 2.329733 2.735185 -1.112240 0
M  V30 39 H 4.068504 1.924018 -1.741724 0
M  V30 40 H 6.072866 0.770651 -2.483071 0
M  V30 41 H 4.154991 -2.934283 -1.760571 0
M  V30 42 H 2.157343 -1.762528 -1.021799 0
M  V30 43 H 1.236424 1.167081 2.614265 0
M  V30 44 H 0.227385 -0.890885 3.628685 0
M  V30 45 H -4.683501 -2.255167 0.440337 0
M  V30 END ATOM
M  V30 BEGIN BOND
M  V30 1 1 1 2
M  V30 2 1 2 3
M  V30 3 1 2 4
M  V30 4 1 4 5
M  V30 5 2 5 6
M  V30 6 1 6 7
M  V30 7 2 7 8
M  V30 8 1 8 9
M  V30 9 1 9 10
M  V30 10 1 10 11
M  V30 11 1 11 12
M  V30 12 2 12 13
M  V30 13 1 12 14
M  V30 14 2 14 15
M  V30 15 1 15 16
M  V30 16 2 16 17
M  V30 17 1 17 18
M  V30 18 1 17 19
M  V30 19 2 19 20
M  V30 20 1 8 21
M  V30 21 2 21 22
M  V30 22 1 2 23
M  V30 23 2 23 24
M  V30 24 1 23 25
M  V30 25 1 22 5
M  V30 26 1 20 14
M  V30 27 1 1 26
M  V30 28 1 1 27
M  V30 29 1 1 28
M  V30 30 1 3 29
M  V30 31 1 3 30
M  V30 32 1 3 31
M  V30 33 1 6 32
M  V30 34 1 7 33
M  V30 35 1 9 34
M  V30 36 1 9 35
M  V30 37 1 10 36
M  V30 38 1 10 37
M  V30 39 1 11 38
M  V30 40 1 15 39
M  V30 41 1 16 40
M  V30 42 1 19 41
M  V30 43 1 20 42
M  V30 44 1 21 43
M  V30 45 1 22 44
M  V30 46 1 25 45
M  V30 END BOND
M  V30 END CTAB
M  END
>  <Dataset>  (111) 
OralDrugs

>  <Ligand_Instance>  (111) 
nan

>  <PDB_ID>  (111) 
nan

>  <Standardized_SMILES>  (111) 
CC(C)(Oc1ccc(CCNC(=O)c2ccc(Cl)cc2)cc1)C(=O)O

>  <Name>  (111) 
Bezafibrate

>  <Pocket>  (111) 
nan

>  <ATP_Site>  (111) 
nan

>  <Peripheral>  (111) 
nan

>  <Num_H_Atoms_ProtBoundConf>  (111) 
nan

>  <Num_Resolved_Atoms>  (111) 
nan

>  <Num_Not_Resolved_Atoms>  (111) 
nan

$$$$
CHEMBL409
     RDKit          3D

  0  0  0  0  0  0  0  0  0  0999 V3000
M  V30 BEGIN CTAB
M  V30 COUNTS 43 44 0 0 0
M  V30 BEGIN ATOM
M  V30 1 C 0.823107 0.947629 -0.338303 0
M  V30 2 C 1.736707 -0.217098 -0.075228 0
M  V30 3 O 2.701302 -0.272315 -1.116044 0
M  V30 4 C 2.503653 -0.114969 1.186227 0
M  V30 5 S 3.584070 1.271670 1.313065 0
M  V30 6 O 4.322713 1.206992 2.628726 0
M  V30 7 O 4.642201 1.207605 0.220308 0
M  V30 8 C 2.824449 2.811486 1.206879 0
M  V30 9 C 2.661635 3.651278 0.098361 0
M  V30 10 C 2.018642 4.866223 0.191582 0
M  V30 11 C 1.502340 5.313807 1.389677 0
M  V30 12 F 0.888661 6.521536 1.376186 0
M  V30 13 C 1.636774 4.523257 2.511630 0
M  V30 14 C 2.283566 3.310435 2.398065 0
M  V30 15 C 0.951885 -1.447283 -0.222058 0
M  V30 16 O 1.310776 -2.188504 -1.170375 0
M  V30 17 N -0.127393 -1.847221 0.582152 0
M  V30 18 C -0.933941 -3.007290 0.512430 0
M  V30 19 C -0.834323 -4.036754 -0.391864 0
M  V30 20 C -1.643571 -5.136148 -0.411645 0
M  V30 21 C -2.638085 -5.258199 0.520775 0
M  V30 22 C -3.489246 -6.408233 0.504861 0
M  V30 23 N -4.184110 -7.349975 0.480325 0
M  V30 24 C -2.770173 -4.244007 1.446726 0
M  V30 25 C -3.835042 -4.364259 2.452993 0
M  V30 26 F -5.093863 -4.440072 1.893412 0
M  V30 27 F -3.590889 -5.554943 3.141861 0
M  V30 28 F -3.709115 -3.349924 3.363081 0
M  V30 29 C -1.935403 -3.159742 1.428365 0
M  V30 30 H 0.736620 1.574738 0.568006 0
M  V30 31 H 1.167040 1.557521 -1.173491 0
M  V30 32 H -0.229804 0.611233 -0.542702 0
M  V30 33 H 3.171926 -1.135165 -0.937668 0
M  V30 34 H 1.748525 0.006320 2.018971 0
M  V30 35 H 3.110664 -1.010744 1.424313 0
M  V30 36 H 3.100903 3.215834 -0.804737 0
M  V30 37 H 1.978714 5.393468 -0.763806 0
M  V30 38 H 1.232142 4.875333 3.447813 0
M  V30 39 H 2.344543 2.755024 3.325708 0
M  V30 40 H -0.310041 -1.137994 1.323310 0
M  V30 41 H -0.069046 -3.992774 -1.148236 0
M  V30 42 H -1.509494 -5.919072 -1.159607 0
M  V30 43 H -2.105051 -2.408083 2.188748 0
M  V30 END ATOM
M  V30 BEGIN BOND
M  V30 1 1 1 2
M  V30 2 1 2 3
M  V30 3 1 2 4
M  V30 4 1 4 5
M  V30 5 2 5 6
M  V30 6 2 5 7
M  V30 7 1 5 8
M  V30 8 2 8 9
M  V30 9 1 9 10
M  V30 10 2 10 11
M  V30 11 1 11 12
M  V30 12 1 11 13
M  V30 13 2 13 14
M  V30 14 1 2 15
M  V30 15 2 15 16
M  V30 16 1 15 17
M  V30 17 1 17 18
M  V30 18 2 18 19
M  V30 19 1 19 20
M  V30 20 2 20 21
M  V30 21 1 21 22
M  V30 22 3 22 23
M  V30 23 1 21 24
M  V30 24 1 24 25
M  V30 25 1 25 26
M  V30 26 1 25 27
M  V30 27 1 25 28
M  V30 28 2 24 29
M  V30 29 1 14 8
M  V30 30 1 29 18
M  V30 31 1 1 30
M  V30 32 1 1 31
M  V30 33 1 1 32
M  V30 34 1 3 33
M  V30 35 1 4 34
M  V30 36 1 4 35
M  V30 37 1 9 36
M  V30 38 1 10 37
M  V30 39 1 13 38
M  V30 40 1 14 39
M  V30 41 1 17 40
M  V30 42 1 19 41
M  V30 43 1 20 42
M  V30 44 1 29 43
M  V30 END BOND
M  V30 END CTAB
M  END
>  <Dataset>  (112) 
OralDrugs

>  <Ligand_Instance>  (112) 
nan

>  <PDB_ID>  (112) 
nan

>  <Standardized_SMILES>  (112) 
CC(O)(CS(=O)(=O)c1ccc(F)cc1)C(=O)Nc1ccc(C#N)c(C(F)(F)F)c1

>  <Name>  (112) 
Bicalutamide

>  <Pocket>  (112) 
nan

>  <ATP_Site>  (112) 
nan

>  <Peripheral>  (112) 
nan

>  <Num_H_Atoms_ProtBoundConf>  (112) 
nan

>  <Num_Resolved_Atoms>  (112) 
nan

>  <Num_Not_Resolved_Atoms>  (112) 
nan

$$$$
CHEMBL3989866
     RDKit          3D

  0  0  0  0  0  0  0  0  0  0999 V3000
M  V30 BEGIN CTAB
M  V30 COUNTS 50 54 0 0 0
M  V30 BEGIN ATOM
M  V30 1 O 1.380007 2.224112 3.386222 0
M  V30 2 C 1.432415 1.625571 2.248965 0
M  V30 3 N 2.406324 1.833286 1.333359 0
M  V30 4 C 3.448365 2.794913 1.669192 0
M  V30 5 C 4.352227 2.856536 0.487208 0
M  V30 6 C 5.265841 1.885877 0.166092 0
M  V30 7 F 5.327947 0.816018 0.995343 0
M  V30 8 C 6.082644 1.981226 -0.938619 0
M  V30 9 C 6.016675 3.078121 -1.785850 0
M  V30 10 F 6.846156 3.127149 -2.869600 0
M  V30 11 C 5.112663 4.051745 -1.478332 0
M  V30 12 C 4.291538 3.957680 -0.370146 0
M  V30 13 F 3.415062 4.994878 -0.150584 0
M  V30 14 C 0.290708 1.098433 2.813423 0
M  V30 15 C 0.133048 0.233664 1.579514 0
M  V30 16 N -0.835381 -0.722801 1.215361 0
M  V30 17 C -1.837683 -0.964759 2.081999 0
M  V30 18 C -1.831522 -0.257600 3.241549 0
M  V30 19 O -2.683679 -0.247022 4.329568 0
M  V30 20 C -0.800237 0.594675 3.352685 0
M  V30 21 O -0.604087 1.373142 4.392862 0
M  V30 22 C -2.921095 -1.924090 2.020969 0
M  V30 23 O -3.813986 -2.070804 2.883900 0
M  V30 24 N -2.860426 -2.708783 0.836062 0
M  V30 25 C -3.766980 -3.821324 0.597446 0 CFG=1
M  V30 26 C -4.374548 -3.817157 -0.768883 0
M  V30 27 C -3.299484 -4.338720 -1.679137 0
M  V30 28 C -2.129396 -4.705619 -0.788030 0 CFG=2
M  V30 29 C -2.838587 -5.049367 0.505062 0
M  V30 30 O -1.252869 -3.682835 -0.559464 0
M  V30 31 C -1.897056 -2.479104 -0.194058 0 CFG=2
M  V30 32 C -0.873291 -1.462012 -0.048873 0
M  V30 33 H 2.183418 1.222570 0.533289 0
M  V30 34 H 3.018496 3.766832 1.921693 0
M  V30 35 H 4.065770 2.425070 2.512049 0
M  V30 36 H 6.806192 1.211016 -1.192529 0
M  V30 37 H 5.030363 4.937437 -2.126296 0
M  V30 38 H 0.713085 0.080530 0.599906 0
M  V30 39 H -2.677314 -0.976625 5.048056 0
M  V30 40 H -4.472027 -3.958815 1.427391 0
M  V30 41 H -4.695384 -2.791345 -1.004158 0
M  V30 42 H -5.208919 -4.550908 -0.763302 0
M  V30 43 H -3.027324 -3.622495 -2.473852 0
M  V30 44 H -3.584527 -5.307312 -2.182556 0
M  V30 45 H -1.546517 -5.560408 -1.192565 0
M  V30 46 H -2.145872 -5.081348 1.361311 0
M  V30 47 H -3.400204 -5.979086 0.329397 0
M  V30 48 H -2.522180 -2.190750 -1.112505 0
M  V30 49 H -0.965594 -0.648846 -0.827157 0
M  V30 50 H 0.148748 -1.891984 -0.194115 0
M  V30 END ATOM
M  V30 BEGIN BOND
M  V30 1 2 1 2
M  V30 2 1 2 3
M  V30 3 1 3 4
M  V30 4 1 4 5
M  V30 5 2 5 6
M  V30 6 1 6 7
M  V30 7 1 6 8
M  V30 8 2 8 9
M  V30 9 1 9 10
M  V30 10 1 9 11
M  V30 11 2 11 12
M  V30 12 1 12 13
M  V30 13 1 2 14
M  V30 14 2 14 15
M  V30 15 1 15 16
M  V30 16 1 16 17
M  V30 17 2 17 18
M  V30 18 1 18 19
M  V30 19 1 18 20
M  V30 20 2 20 21
M  V30 21 1 17 22
M  V30 22 2 22 23
M  V30 23 1 22 24
M  V30 24 1 24 25
M  V30 25 1 25 26
M  V30 26 1 26 27
M  V30 27 1 27 28
M  V30 28 1 28 29
M  V30 29 1 28 30
M  V30 30 1 30 31
M  V30 31 1 31 32
M  V30 32 1 12 5
M  V30 33 1 20 14
M  V30 34 1 31 24
M  V30 35 1 32 16
M  V30 36 1 29 25
M  V30 37 1 3 33
M  V30 38 1 4 34
M  V30 39 1 4 35
M  V30 40 1 8 36
M  V30 41 1 11 37
M  V30 42 1 15 38
M  V30 43 1 19 39
M  V30 44 1 25 40 CFG=1
M  V30 45 1 26 41
M  V30 46 1 26 42
M  V30 47 1 27 43
M  V30 48 1 27 44
M  V30 49 1 28 45 CFG=3
M  V30 50 1 29 46
M  V30 51 1 29 47
M  V30 52 1 31 48 CFG=3
M  V30 53 1 32 49
M  V30 54 1 32 50
M  V30 END BOND
M  V30 END CTAB
M  END
>  <Dataset>  (113) 
OralDrugs

>  <Ligand_Instance>  (113) 
nan

>  <PDB_ID>  (113) 
nan

>  <Standardized_SMILES>  (113) 
O=C(NCc1c(F)cc(F)cc1F)c1cn2c(c(O)c1=O)C(=O)N1[C@H]3CC[C@H](C3)O[C@@H]1C2

>  <Name>  (113) 
Bictegravir

>  <Pocket>  (113) 
nan

>  <ATP_Site>  (113) 
nan

>  <Peripheral>  (113) 
nan

>  <Num_H_Atoms_ProtBoundConf>  (113) 
nan

>  <Num_Resolved_Atoms>  (113) 
nan

>  <Num_Not_Resolved_Atoms>  (113) 
nan

$$$$
CHEMBL3187723
     RDKit          3D

  0  0  0  0  0  0  0  0  0  0999 V3000
M  V30 BEGIN CTAB
M  V30 COUNTS 42 44 0 0 0
M  V30 BEGIN ATOM
M  V30 1 C -1.826974 -5.202839 0.138669 0
M  V30 2 N -1.266678 -4.327514 -0.897822 0
M  V30 3 C -1.152713 -4.671015 -2.190371 0
M  V30 4 N -0.602914 -3.634235 -2.841736 0
M  V30 5 C -0.356373 -2.618166 -1.992925 0
M  V30 6 C 0.180549 -1.326594 -2.051559 0
M  V30 7 F 0.539979 -1.035681 -3.344032 0
M  V30 8 C 0.284010 -0.522960 -0.911841 0
M  V30 9 N 0.857551 0.714594 -1.192340 0
M  V30 10 C 2.042249 1.460483 -1.172517 0
M  V30 11 C 2.122687 2.658726 -0.452821 0
M  V30 12 C 3.290270 3.384857 -0.423543 0
M  V30 13 C 4.373865 2.925621 -1.104198 0
M  V30 14 Br 5.974745 3.962253 -1.036392 0
M  V30 15 C 4.364942 1.756457 -1.831701 0
M  V30 16 C 3.166729 1.034895 -1.847267 0
M  V30 17 F 3.229333 -0.090476 -2.568155 0
M  V30 18 C -0.163643 -1.048190 0.275790 0
M  V30 19 C -0.050937 -0.184870 1.442830 0
M  V30 20 O 0.362616 0.982365 1.626315 0
M  V30 21 N -0.464065 -0.639942 2.719428 0
M  V30 22 O -0.254178 0.354535 3.634910 0
M  V30 23 C -0.647459 -0.104234 4.891016 0
M  V30 24 C -0.460868 0.955416 5.955129 0
M  V30 25 O -0.844789 0.524215 7.224255 0
M  V30 26 C -0.698997 -2.303840 0.400355 0
M  V30 27 C -0.780937 -3.061463 -0.749142 0
M  V30 28 H -1.255460 -5.105771 1.098688 0
M  V30 29 H -2.877652 -4.965247 0.376907 0
M  V30 30 H -1.711829 -6.256989 -0.193957 0
M  V30 31 H -1.452223 -5.616212 -2.622848 0
M  V30 32 H 0.098118 1.334612 -1.568711 0
M  V30 33 H 1.286915 3.059304 0.098808 0
M  V30 34 H 3.330540 4.313975 0.141971 0
M  V30 35 H 5.260404 1.443436 -2.352708 0
M  V30 36 H -0.865318 -1.584650 2.934378 0
M  V30 37 H -0.142199 -1.048400 5.172342 0
M  V30 38 H -1.737023 -0.321412 4.871560 0
M  V30 39 H -1.040431 1.865951 5.747695 0
M  V30 40 H 0.622650 1.173285 6.000980 0
M  V30 41 H -1.814146 0.706714 7.305898 0
M  V30 42 H -1.055451 -2.733540 1.320377 0
M  V30 END ATOM
M  V30 BEGIN BOND
M  V30 1 1 1 2
M  V30 2 1 2 3
M  V30 3 2 3 4
M  V30 4 1 4 5
M  V30 5 2 5 6
M  V30 6 1 6 7
M  V30 7 1 6 8
M  V30 8 1 8 9
M  V30 9 1 9 10
M  V30 10 2 10 11
M  V30 11 1 11 12
M  V30 12 2 12 13
M  V30 13 1 13 14
M  V30 14 1 13 15
M  V30 15 2 15 16
M  V30 16 1 16 17
M  V30 17 2 8 18
M  V30 18 1 18 19
M  V30 19 2 19 20
M  V30 20 1 19 21
M  V30 21 1 21 22
M  V30 22 1 22 23
M  V30 23 1 23 24
M  V30 24 1 24 25
M  V30 25 1 18 26
M  V30 26 2 26 27
M  V30 27 1 27 2
M  V30 28 1 27 5
M  V30 29 1 16 10
M  V30 30 1 1 28
M  V30 31 1 1 29
M  V30 32 1 1 30
M  V30 33 1 3 31
M  V30 34 1 9 32
M  V30 35 1 11 33
M  V30 36 1 12 34
M  V30 37 1 15 35
M  V30 38 1 21 36
M  V30 39 1 23 37
M  V30 40 1 23 38
M  V30 41 1 24 39
M  V30 42 1 24 40
M  V30 43 1 25 41
M  V30 44 1 26 42
M  V30 END BOND
M  V30 END CTAB
M  END
>  <Dataset>  (114) 
OralDrugs

>  <Ligand_Instance>  (114) 
nan

>  <PDB_ID>  (114) 
nan

>  <Standardized_SMILES>  (114) 
Cn1cnc2c(F)c(Nc3ccc(Br)cc3F)c(C(=O)NOCCO)cc21

>  <Name>  (114) 
Binimetinib

>  <Pocket>  (114) 
nan

>  <ATP_Site>  (114) 
nan

>  <Peripheral>  (114) 
nan

>  <Num_H_Atoms_ProtBoundConf>  (114) 
nan

>  <Num_Resolved_Atoms>  (114) 
nan

>  <Num_Not_Resolved_Atoms>  (114) 
nan

$$$$
CHEMBL1101
     RDKit          3D

  0  0  0  0  0  0  0  0  0  0999 V3000
M  V30 BEGIN CTAB
M  V30 COUNTS 52 55 0 0 0
M  V30 BEGIN ATOM
M  V30 1 O -0.252173 -2.378153 2.154210 0
M  V30 2 C -0.816248 -1.338533 1.312990 0
M  V30 3 C -0.471604 -1.840859 -0.053521 0
M  V30 4 C 0.992837 -1.997076 -0.302745 0
M  V30 5 N 1.784707 -0.794990 -0.214455 0
M  V30 6 C 1.464197 0.074278 -1.328168 0
M  V30 7 C 2.541761 0.033364 -2.396232 0
M  V30 8 C 3.800756 0.638128 -1.812185 0
M  V30 9 C 4.142290 -0.169623 -0.602725 0
M  V30 10 C 3.161988 -1.251217 -0.264295 0
M  V30 11 C 0.030865 -0.189529 1.717148 0
M  V30 12 C -0.218738 1.123246 1.388253 0
M  V30 13 C 0.541956 2.207535 1.760345 0
M  V30 14 C 1.658795 2.002605 2.528594 0
M  V30 15 C 2.014440 0.732953 2.921818 0
M  V30 16 C 1.194160 -0.279790 2.501601 0
M  V30 17 C -2.197818 -1.346132 1.755960 0
M  V30 18 C -2.892370 -2.697504 1.571397 0
M  V30 19 C -4.361650 -2.330936 1.615709 0
M  V30 20 C -4.697866 -1.921607 0.215682 0
M  V30 21 C -3.933547 -0.835152 0.038410 0
M  V30 22 C -3.235187 -0.424342 1.310195 0
M  V30 23 C -4.349435 -0.960769 2.259020 0
M  V30 24 H -0.391204 -2.101549 3.089131 0
M  V30 25 H -0.880558 -2.875708 -0.269718 0
M  V30 26 H -0.882521 -1.245059 -0.872468 0
M  V30 27 H 1.074045 -2.300335 -1.390658 0
M  V30 28 H 1.449634 -2.853088 0.227816 0
M  V30 29 H 1.475308 1.115828 -0.945969 0
M  V30 30 H 0.532768 -0.196835 -1.861235 0
M  V30 31 H 2.730449 -1.001598 -2.693438 0
M  V30 32 H 2.172453 0.608162 -3.264813 0
M  V30 33 H 3.613565 1.706491 -1.578818 0
M  V30 34 H 4.605538 0.570198 -2.568622 0
M  V30 35 H 4.348682 0.501102 0.265878 0
M  V30 36 H 5.112393 -0.688134 -0.789286 0
M  V30 37 H 3.230799 -2.113561 -0.950919 0
M  V30 38 H 3.414145 -1.614243 0.757490 0
M  V30 39 H -1.058161 1.390856 0.778347 0
M  V30 40 H 0.313297 3.224879 1.482296 0
M  V30 41 H 2.282706 2.820236 2.842440 0
M  V30 42 H 2.880801 0.524090 3.523834 0
M  V30 43 H 1.491081 -1.293158 2.823856 0
M  V30 44 H -2.168845 -1.275292 2.893201 0
M  V30 45 H -2.635149 -3.417876 2.377611 0
M  V30 46 H -2.619795 -3.070732 0.575991 0
M  V30 47 H -5.020208 -3.040699 2.065545 0
M  V30 48 H -5.368524 -2.345525 -0.513618 0
M  V30 49 H -3.760859 -0.244747 -0.852812 0
M  V30 50 H -3.138113 0.640362 1.417835 0
M  V30 51 H -5.299121 -0.435663 2.039071 0
M  V30 52 H -4.042382 -0.940840 3.298715 0
M  V30 END ATOM
M  V30 BEGIN BOND
M  V30 1 1 1 2
M  V30 2 1 2 3
M  V30 3 1 3 4
M  V30 4 1 4 5
M  V30 5 1 5 6
M  V30 6 1 6 7
M  V30 7 1 7 8
M  V30 8 1 8 9
M  V30 9 1 9 10
M  V30 10 1 2 11
M  V30 11 2 11 12
M  V30 12 1 12 13
M  V30 13 2 13 14
M  V30 14 1 14 15
M  V30 15 2 15 16
M  V30 16 1 2 17
M  V30 17 1 17 18
M  V30 18 1 18 19
M  V30 19 1 19 20
M  V30 20 2 20 21
M  V30 21 1 21 22
M  V30 22 1 22 23
M  V30 23 1 10 5
M  V30 24 1 16 11
M  V30 25 1 22 17
M  V30 26 1 23 19
M  V30 27 1 1 24
M  V30 28 1 3 25
M  V30 29 1 3 26
M  V30 30 1 4 27
M  V30 31 1 4 28
M  V30 32 1 6 29
M  V30 33 1 6 30
M  V30 34 1 7 31
M  V30 35 1 7 32
M  V30 36 1 8 33
M  V30 37 1 8 34
M  V30 38 1 9 35
M  V30 39 1 9 36
M  V30 40 1 10 37
M  V30 41 1 10 38
M  V30 42 1 12 39
M  V30 43 1 13 40
M  V30 44 1 14 41
M  V30 45 1 15 42
M  V30 46 1 16 43
M  V30 47 1 17 44
M  V30 48 1 18 45
M  V30 49 1 18 46
M  V30 50 1 19 47
M  V30 51 1 20 48
M  V30 52 1 21 49
M  V30 53 1 22 50
M  V30 54 1 23 51
M  V30 55 1 23 52
M  V30 END BOND
M  V30 END CTAB
M  END
>  <Dataset>  (115) 
OralDrugs

>  <Ligand_Instance>  (115) 
nan

>  <PDB_ID>  (115) 
nan

>  <Standardized_SMILES>  (115) 
OC(CCN1CCCCC1)(c1ccccc1)C1CC2C=CC1C2

>  <Name>  (115) 
Biperiden

>  <Pocket>  (115) 
nan

>  <ATP_Site>  (115) 
nan

>  <Peripheral>  (115) 
nan

>  <Num_H_Atoms_ProtBoundConf>  (115) 
nan

>  <Num_Resolved_Atoms>  (115) 
nan

>  <Num_Not_Resolved_Atoms>  (115) 
nan

$$$$
CHEMBL942
     RDKit          3D

  0  0  0  0  0  0  0  0  0  0999 V3000
M  V30 BEGIN CTAB
M  V30 COUNTS 46 48 0 0 0
M  V30 BEGIN ATOM
M  V30 1 C 0.134250 -7.388097 2.940631 0
M  V30 2 C 0.725059 -6.107112 2.494248 0
M  V30 3 O -0.097403 -5.278657 1.998497 0
M  V30 4 O 1.457561 -5.008585 2.150303 0
M  V30 5 C 0.871027 -3.889680 1.570450 0
M  V30 6 C 0.404707 -2.896909 2.407072 0
M  V30 7 C -0.177128 -1.786126 1.838395 0
M  V30 8 C -0.339661 -1.569202 0.494988 0
M  V30 9 C -0.937426 -0.435465 -0.215588 0
M  V30 10 C -0.052606 0.664132 -0.560348 0
M  V30 11 C -0.232886 2.028032 -0.470300 0
M  V30 12 C 0.706991 2.972485 -0.819398 0
M  V30 13 C 1.930435 2.556566 -1.299191 0
M  V30 14 O 2.877601 3.515594 -1.650891 0
M  V30 15 C 3.810428 4.012217 -0.778592 0
M  V30 16 C 4.866853 4.632751 0.050959 0
M  V30 17 O 3.001770 3.143064 -0.341813 0
M  V30 18 C 2.170857 1.192619 -1.413160 0
M  V30 19 C 1.196173 0.264156 -1.049964 0
M  V30 20 C -2.051482 0.060832 0.666857 0
M  V30 21 C -1.919746 0.916356 1.737536 0
M  V30 22 C -3.017383 1.304448 2.475228 0
M  V30 23 C -4.284249 0.858812 2.178751 0
M  V30 24 C -4.391516 0.004820 1.104770 0
M  V30 25 N -3.313774 -0.367323 0.391646 0
M  V30 26 C 0.158338 -2.621050 -0.288451 0
M  V30 27 C 0.756120 -3.771204 0.184097 0
M  V30 28 H 0.870695 -8.159531 3.196086 0
M  V30 29 H -0.596040 -7.736486 2.159331 0
M  V30 30 H -0.458544 -7.145539 3.855914 0
M  V30 31 H 0.476787 -2.952717 3.492099 0
M  V30 32 H -0.548486 -1.004114 2.483726 0
M  V30 33 H -1.380416 -0.812205 -1.174023 0
M  V30 34 H -1.198834 2.340023 -0.104299 0
M  V30 35 H 0.458863 4.004444 -0.708050 0
M  V30 36 H 5.824812 4.756008 -0.494556 0
M  V30 37 H 5.059553 3.932741 0.905142 0
M  V30 38 H 4.535477 5.590211 0.502475 0
M  V30 39 H 3.150220 0.973101 -1.795657 0
M  V30 40 H 1.584405 -0.731274 -1.214613 0
M  V30 41 H -0.927596 1.272092 1.980969 0
M  V30 42 H -2.875674 1.977940 3.308959 0
M  V30 43 H -5.180271 1.141847 2.736823 0
M  V30 44 H -5.367193 -0.379113 0.824764 0
M  V30 45 H 0.090584 -2.580491 -1.387826 0
M  V30 46 H 1.117043 -4.540878 -0.476092 0
M  V30 END ATOM
M  V30 BEGIN BOND
M  V30 1 1 1 2
M  V30 2 2 2 3
M  V30 3 1 2 4
M  V30 4 1 4 5
M  V30 5 2 5 6
M  V30 6 1 6 7
M  V30 7 2 7 8
M  V30 8 1 8 9
M  V30 9 1 9 10
M  V30 10 2 10 11
M  V30 11 1 11 12
M  V30 12 2 12 13
M  V30 13 1 13 14
M  V30 14 1 14 15
M  V30 15 1 15 16
M  V30 16 2 15 17
M  V30 17 1 13 18
M  V30 18 2 18 19
M  V30 19 1 9 20
M  V30 20 2 20 21
M  V30 21 1 21 22
M  V30 22 2 22 23
M  V30 23 1 23 24
M  V30 24 2 24 25
M  V30 25 1 8 26
M  V30 26 2 26 27
M  V30 27 1 27 5
M  V30 28 1 19 10
M  V30 29 1 25 20
M  V30 30 1 1 28
M  V30 31 1 1 29
M  V30 32 1 1 30
M  V30 33 1 6 31
M  V30 34 1 7 32
M  V30 35 1 9 33
M  V30 36 1 11 34
M  V30 37 1 12 35
M  V30 38 1 16 36
M  V30 39 1 16 37
M  V30 40 1 16 38
M  V30 41 1 18 39
M  V30 42 1 19 40
M  V30 43 1 21 41
M  V30 44 1 22 42
M  V30 45 1 23 43
M  V30 46 1 24 44
M  V30 47 1 26 45
M  V30 48 1 27 46
M  V30 END BOND
M  V30 END CTAB
M  END
>  <Dataset>  (116) 
OralDrugs

>  <Ligand_Instance>  (116) 
nan

>  <PDB_ID>  (116) 
nan

>  <Standardized_SMILES>  (116) 
CC(=O)Oc1ccc(C(c2ccc(OC(C)=O)cc2)c2ccccn2)cc1

>  <Name>  (116) 
Bisacodyl

>  <Pocket>  (116) 
nan

>  <ATP_Site>  (116) 
nan

>  <Peripheral>  (116) 
nan

>  <Num_H_Atoms_ProtBoundConf>  (116) 
nan

>  <Num_Resolved_Atoms>  (116) 
nan

>  <Num_Not_Resolved_Atoms>  (116) 
nan

$$$$
CHEMBL645
     RDKit          3D

  0  0  0  0  0  0  0  0  0  0999 V3000
M  V30 BEGIN CTAB
M  V30 COUNTS 54 54 0 0 0
M  V30 BEGIN ATOM
M  V30 1 C 1.767977 -2.312362 -3.641783 0
M  V30 2 C 2.624650 -3.326772 -2.936906 0
M  V30 3 C 1.802534 -4.546263 -2.595748 0
M  V30 4 N 3.236913 -2.753038 -1.744693 0
M  V30 5 C 4.055613 -1.633606 -2.151017 0
M  V30 6 C 4.724170 -0.998171 -0.936164 0
M  V30 7 O 5.524901 -1.993161 -0.328446 0
M  V30 8 C 3.708647 -0.504190 0.035760 0
M  V30 9 O 2.898158 0.500276 -0.576223 0
M  V30 10 C 1.877697 1.097030 0.173459 0
M  V30 11 C 1.672813 0.701357 1.497079 0
M  V30 12 C 0.637595 1.336163 2.190744 0
M  V30 13 C -0.173235 2.315022 1.637967 0
M  V30 14 C -1.242324 2.930366 2.445857 0
M  V30 15 O -2.459172 2.307498 2.386963 0
M  V30 16 C -2.446923 0.992453 2.815199 0
M  V30 17 C -3.828908 0.424611 2.702734 0
M  V30 18 O -3.922747 -0.908559 3.114093 0
M  V30 19 C -5.245890 -1.301476 2.957395 0
M  V30 20 C -5.911674 -1.730892 4.231742 0
M  V30 21 C -5.420886 -2.380428 1.914078 0
M  V30 22 C 0.082959 2.659249 0.325421 0
M  V30 23 C 1.102063 2.066670 -0.431059 0
M  V30 24 H 0.852054 -2.795293 -4.026061 0
M  V30 25 H 1.439593 -1.524016 -2.923332 0
M  V30 26 H 2.318934 -1.880970 -4.515005 0
M  V30 27 H 3.452626 -3.614963 -3.617254 0
M  V30 28 H 2.370206 -5.460259 -2.874830 0
M  V30 29 H 1.619977 -4.608235 -1.485368 0
M  V30 30 H 0.835671 -4.562605 -3.133031 0
M  V30 31 H 2.520099 -2.487791 -1.038858 0
M  V30 32 H 3.357012 -0.843437 -2.542851 0
M  V30 33 H 4.790095 -1.929619 -2.900937 0
M  V30 34 H 5.377725 -0.162008 -1.226825 0
M  V30 35 H 6.463386 -1.874354 -0.644841 0
M  V30 36 H 4.268434 0.000404 0.876922 0
M  V30 37 H 3.120461 -1.295214 0.498693 0
M  V30 38 H 2.264422 -0.043952 1.971119 0
M  V30 39 H 0.491623 1.021231 3.208883 0
M  V30 40 H -1.399424 3.974267 2.079754 0
M  V30 41 H -0.877342 3.017559 3.492751 0
M  V30 42 H -2.181974 0.966515 3.897054 0
M  V30 43 H -1.668542 0.370903 2.321841 0
M  V30 44 H -4.467043 1.004995 3.428981 0
M  V30 45 H -4.258522 0.473556 1.684770 0
M  V30 46 H -5.786837 -0.398642 2.548953 0
M  V30 47 H -6.096657 -2.825211 4.283506 0
M  V30 48 H -6.917292 -1.244206 4.306702 0
M  V30 49 H -5.319811 -1.483199 5.137523 0
M  V30 50 H -4.500022 -2.532133 1.313254 0
M  V30 51 H -6.321958 -2.210815 1.279554 0
M  V30 52 H -5.589948 -3.337239 2.449798 0
M  V30 53 H -0.579278 3.436125 -0.074568 0
M  V30 54 H 1.248360 2.383379 -1.454050 0
M  V30 END ATOM
M  V30 BEGIN BOND
M  V30 1 1 1 2
M  V30 2 1 2 3
M  V30 3 1 2 4
M  V30 4 1 4 5
M  V30 5 1 5 6
M  V30 6 1 6 7
M  V30 7 1 6 8
M  V30 8 1 8 9
M  V30 9 1 9 10
M  V30 10 2 10 11
M  V30 11 1 11 12
M  V30 12 2 12 13
M  V30 13 1 13 14
M  V30 14 1 14 15
M  V30 15 1 15 16
M  V30 16 1 16 17
M  V30 17 1 17 18
M  V30 18 1 18 19
M  V30 19 1 19 20
M  V30 20 1 19 21
M  V30 21 1 13 22
M  V30 22 2 22 23
M  V30 23 1 23 10
M  V30 24 1 1 24
M  V30 25 1 1 25
M  V30 26 1 1 26
M  V30 27 1 2 27
M  V30 28 1 3 28
M  V30 29 1 3 29
M  V30 30 1 3 30
M  V30 31 1 4 31
M  V30 32 1 5 32
M  V30 33 1 5 33
M  V30 34 1 6 34
M  V30 35 1 7 35
M  V30 36 1 8 36
M  V30 37 1 8 37
M  V30 38 1 11 38
M  V30 39 1 12 39
M  V30 40 1 14 40
M  V30 41 1 14 41
M  V30 42 1 16 42
M  V30 43 1 16 43
M  V30 44 1 17 44
M  V30 45 1 17 45
M  V30 46 1 19 46
M  V30 47 1 20 47
M  V30 48 1 20 48
M  V30 49 1 20 49
M  V30 50 1 21 50
M  V30 51 1 21 51
M  V30 52 1 21 52
M  V30 53 1 22 53
M  V30 54 1 23 54
M  V30 END BOND
M  V30 END CTAB
M  END
>  <Dataset>  (117) 
OralDrugs

>  <Ligand_Instance>  (117) 
nan

>  <PDB_ID>  (117) 
nan

>  <Standardized_SMILES>  (117) 
CC(C)NCC(O)COc1ccc(COCCOC(C)C)cc1

>  <Name>  (117) 
Bisoprolol

>  <Pocket>  (117) 
nan

>  <ATP_Site>  (117) 
nan

>  <Peripheral>  (117) 
nan

>  <Num_H_Atoms_ProtBoundConf>  (117) 
nan

>  <Num_Resolved_Atoms>  (117) 
nan

>  <Num_Not_Resolved_Atoms>  (117) 
nan

$$$$
CHEMBL178803
     RDKit          3D

  0  0  0  0  0  0  0  0  0  0999 V3000
M  V30 BEGIN CTAB
M  V30 COUNTS 57 60 0 0 0
M  V30 BEGIN ATOM
M  V30 1 C 1.712734 -3.515645 1.202861 0
M  V30 2 C 2.405621 -4.569703 0.401495 0
M  V30 3 N 2.526789 -4.213336 -0.970777 0
M  V30 4 C 3.385969 -3.148316 -1.279461 0
M  V30 5 C 2.672235 -1.930263 -1.809050 0
M  V30 6 N 1.272911 -2.039890 -1.609222 0
M  V30 7 C 0.398630 -1.197210 -0.878295 0
M  V30 8 C 0.772752 -0.091849 -0.156569 0
M  V30 9 C -0.129294 0.706915 0.544999 0
M  V30 10 C 0.584129 1.833424 1.164581 0
M  V30 11 C 0.416538 3.221309 1.046760 0
M  V30 12 C 1.203703 4.091874 1.744584 0
M  V30 13 C 2.194000 3.660986 2.592214 0
M  V30 14 F 2.944440 4.563676 3.259730 0
M  V30 15 C 2.420915 2.313230 2.761668 0
M  V30 16 C 1.609861 1.457021 2.043824 0
M  V30 17 C -1.497889 0.401491 0.541578 0
M  V30 18 C -1.810664 -0.723590 -0.205132 0
M  V30 19 N -0.922601 -1.483138 -0.877380 0
M  V30 20 C -3.089282 -1.413799 -0.515026 0
M  V30 21 C -4.245135 -0.450439 -0.599819 0
M  V30 22 C -4.754232 -0.025811 0.744989 0
M  V30 23 C -3.824446 -0.296706 1.870547 0
M  V30 24 C -3.094458 0.927998 2.359558 0
M  V30 25 C -2.063701 1.448422 1.388067 0
M  V30 26 C 0.766412 -3.211987 -2.293748 0
M  V30 27 C 1.431979 -4.481274 -1.811713 0
M  V30 28 H 1.872795 -3.672103 2.302418 0
M  V30 29 H 2.208045 -2.540548 0.986489 0
M  V30 30 H 0.622680 -3.476093 1.036675 0
M  V30 31 H 1.870564 -5.541497 0.555193 0
M  V30 32 H 3.413071 -4.754151 0.874932 0
M  V30 33 H 4.142139 -3.505878 -2.035296 0
M  V30 34 H 3.935387 -2.875220 -0.327860 0
M  V30 35 H 2.854671 -1.913088 -2.924776 0
M  V30 36 H 3.134188 -1.042052 -1.329048 0
M  V30 37 H 1.843819 0.060159 -0.213532 0
M  V30 38 H -0.393943 3.438456 0.346294 0
M  V30 39 H 0.968378 5.133925 1.561574 0
M  V30 40 H 3.193791 1.948361 3.421897 0
M  V30 41 H 1.835094 0.394637 2.217550 0
M  V30 42 H -3.282016 -2.304152 0.096265 0
M  V30 43 H -2.973384 -1.821823 -1.566204 0
M  V30 44 H -3.923876 0.386333 -1.254047 0
M  V30 45 H -5.067826 -0.960331 -1.140996 0
M  V30 46 H -4.938083 1.077749 0.700578 0
M  V30 47 H -5.779590 -0.462397 0.930780 0
M  V30 48 H -4.491058 -0.583612 2.748634 0
M  V30 49 H -3.165842 -1.174085 1.767181 0
M  V30 50 H -3.843686 1.708291 2.618330 0
M  V30 51 H -2.529942 0.606209 3.284946 0
M  V30 52 H -1.240104 1.890185 2.025550 0
M  V30 53 H -2.443061 2.324085 0.816509 0
M  V30 54 H 0.842207 -3.101253 -3.398204 0
M  V30 55 H -0.329523 -3.325246 -2.083890 0
M  V30 56 H 0.693948 -5.149497 -1.289275 0
M  V30 57 H 1.745255 -5.112507 -2.698838 0
M  V30 END ATOM
M  V30 BEGIN BOND
M  V30 1 1 1 2
M  V30 2 1 2 3
M  V30 3 1 3 4
M  V30 4 1 4 5
M  V30 5 1 5 6
M  V30 6 1 6 7
M  V30 7 2 7 8
M  V30 8 1 8 9
M  V30 9 1 9 10
M  V30 10 2 10 11
M  V30 11 1 11 12
M  V30 12 2 12 13
M  V30 13 1 13 14
M  V30 14 1 13 15
M  V30 15 2 15 16
M  V30 16 2 9 17
M  V30 17 1 17 18
M  V30 18 2 18 19
M  V30 19 1 18 20
M  V30 20 1 20 21
M  V30 21 1 21 22
M  V30 22 1 22 23
M  V30 23 1 23 24
M  V30 24 1 24 25
M  V30 25 1 6 26
M  V30 26 1 26 27
M  V30 27 1 27 3
M  V30 28 1 19 7
M  V30 29 1 16 10
M  V30 30 1 25 17
M  V30 31 1 1 28
M  V30 32 1 1 29
M  V30 33 1 1 30
M  V30 34 1 2 31
M  V30 35 1 2 32
M  V30 36 1 4 33
M  V30 37 1 4 34
M  V30 38 1 5 35
M  V30 39 1 5 36
M  V30 40 1 8 37
M  V30 41 1 11 38
M  V30 42 1 12 39
M  V30 43 1 15 40
M  V30 44 1 16 41
M  V30 45 1 20 42
M  V30 46 1 20 43
M  V30 47 1 21 44
M  V30 48 1 21 45
M  V30 49 1 22 46
M  V30 50 1 22 47
M  V30 51 1 23 48
M  V30 52 1 23 49
M  V30 53 1 24 50
M  V30 54 1 24 51
M  V30 55 1 25 52
M  V30 56 1 25 53
M  V30 57 1 26 54
M  V30 58 1 26 55
M  V30 59 1 27 56
M  V30 60 1 27 57
M  V30 END BOND
M  V30 END CTAB
M  END
>  <Dataset>  (118) 
OralDrugs

>  <Ligand_Instance>  (118) 
nan

>  <PDB_ID>  (118) 
nan

>  <Standardized_SMILES>  (118) 
CCN1CCN(c2cc(-c3ccc(F)cc3)c3c(n2)CCCCCC3)CC1

>  <Name>  (118) 
Blonanserin

>  <Pocket>  (118) 
nan

>  <ATP_Site>  (118) 
nan

>  <Peripheral>  (118) 
nan

>  <Num_H_Atoms_ProtBoundConf>  (118) 
nan

>  <Num_Resolved_Atoms>  (118) 
nan

>  <Num_Not_Resolved_Atoms>  (118) 
nan

$$$$
CHEMBL218394
     RDKit          3D

  0  0  0  0  0  0  0  0  0  0999 V3000
M  V30 BEGIN CTAB
M  V30 COUNTS 82 84 0 0 0
M  V30 BEGIN ATOM
M  V30 1 C -4.841254 -0.552553 -2.804736 0
M  V30 2 C -4.217890 -0.331585 -4.166932 0
M  V30 3 C -5.038454 0.653971 -4.939994 0
M  V30 4 C -4.255190 -1.657210 -4.893326 0
M  V30 5 N -2.859190 0.126403 -3.953482 0
M  V30 6 C -1.958425 -0.703602 -3.250054 0
M  V30 7 O -2.192100 -1.817187 -2.772606 0
M  V30 8 N -0.623551 -0.259858 -3.038086 0
M  V30 9 C 0.385145 -1.031933 -2.326820 0 CFG=2
M  V30 10 C 0.763108 -0.202355 -1.179397 0
M  V30 11 O 0.165227 0.904745 -1.171780 0
M  V30 12 N 1.452423 0.078124 -0.014815 0
M  V30 13 C 1.166717 1.381308 0.539575 0
M  V30 14 C 2.229588 1.626443 1.585606 0 CFG=1
M  V30 15 C 3.180740 0.476000 1.541851 0 CFG=1
M  V30 16 C 2.398096 -0.572489 0.839003 0 CFG=1
M  V30 17 C 1.654375 -1.321306 1.919344 0
M  V30 18 O 2.446142 -1.968070 2.675775 0
M  V30 19 N 0.235335 -1.367585 2.155818 0
M  V30 20 C -0.272547 -2.143517 3.239549 0
M  V30 21 C -0.922184 -1.349705 4.347708 0
M  V30 22 C -2.089348 -0.533163 3.891928 0
M  V30 23 C -2.766735 0.252991 4.967827 0
M  V30 24 C -2.136889 1.511074 4.445061 0
M  V30 25 C -1.699263 0.778158 3.220664 0
M  V30 26 C -1.242578 -3.189455 2.829397 0
M  V30 27 O -1.653839 -3.838974 3.819792 0
M  V30 28 C -1.574378 -3.322867 1.422647 0
M  V30 29 N -2.516932 -4.350000 1.116314 0
M  V30 30 O -1.229346 -2.741483 0.364628 0
M  V30 31 C 3.605691 1.758052 1.014855 0
M  V30 32 C 4.541396 2.576145 1.878665 0
M  V30 33 C 3.748463 2.082418 -0.450612 0
M  V30 34 C 1.617569 -1.270270 -3.172747 0
M  V30 35 C 1.269289 -2.036336 -4.442329 0
M  V30 36 C 2.563048 -2.145894 -2.387552 0
M  V30 37 C 2.326221 0.018479 -3.473005 0
M  V30 38 H -4.492788 0.238382 -2.137387 0
M  V30 39 H -5.952018 -0.590888 -2.875118 0
M  V30 40 H -4.492487 -1.571671 -2.471007 0
M  V30 41 H -5.809166 0.096391 -5.508938 0
M  V30 42 H -5.596338 1.275776 -4.195656 0
M  V30 43 H -4.435284 1.286874 -5.622443 0
M  V30 44 H -5.276522 -1.757784 -5.316289 0
M  V30 45 H -3.556560 -1.681520 -5.756822 0
M  V30 46 H -4.137263 -2.533767 -4.227286 0
M  V30 47 H -2.551998 1.065548 -4.318163 0
M  V30 48 H -0.267417 0.680154 -3.390039 0
M  V30 49 H -0.051648 -1.982943 -1.996944 0
M  V30 50 H 0.144421 1.523549 0.885443 0
M  V30 51 H 1.363909 2.135262 -0.279060 0
M  V30 52 H 1.950432 1.992857 2.569073 0
M  V30 53 H 3.636713 0.130244 2.494014 0
M  V30 54 H 3.016483 -1.325038 0.345584 0
M  V30 55 H -0.240553 -0.781443 1.436557 0
M  V30 56 H 0.608119 -2.688139 3.685619 0
M  V30 57 H -1.338956 -2.123709 5.054747 0
M  V30 58 H -0.220449 -0.741043 4.920303 0
M  V30 59 H -2.824707 -1.069095 3.269194 0
M  V30 60 H -2.455931 -0.029431 6.000748 0
M  V30 61 H -3.890094 0.302272 4.873912 0
M  V30 62 H -2.821818 2.368341 4.271774 0
M  V30 63 H -1.315951 1.828896 5.135269 0
M  V30 64 H -2.249748 1.011232 2.300119 0
M  V30 65 H -0.604201 0.896640 3.071061 0
M  V30 66 H -3.004070 -5.237681 0.863152 0
M  V30 67 H -3.412819 -3.798052 1.231465 0
M  V30 68 H 4.283357 3.647452 1.647096 0
M  V30 69 H 5.595246 2.425853 1.646930 0
M  V30 70 H 4.267620 2.450749 2.936448 0
M  V30 71 H 4.801829 1.899979 -0.747609 0
M  V30 72 H 3.572410 3.176317 -0.593537 0
M  V30 73 H 3.113760 1.489941 -1.103531 0
M  V30 74 H 0.184261 -1.931688 -4.701274 0
M  V30 75 H 1.596975 -3.097815 -4.401513 0
M  V30 76 H 1.797972 -1.618919 -5.345913 0
M  V30 77 H 2.050946 -2.707680 -1.578724 0
M  V30 78 H 3.021159 -2.871436 -3.088163 0
M  V30 79 H 3.411822 -1.543337 -1.996284 0
M  V30 80 H 2.504058 0.152640 -4.575869 0
M  V30 81 H 1.761111 0.884098 -3.051637 0
M  V30 82 H 3.349647 0.095859 -3.040804 0
M  V30 END ATOM
M  V30 BEGIN BOND
M  V30 1 1 1 2
M  V30 2 1 2 3
M  V30 3 1 2 4
M  V30 4 1 2 5
M  V30 5 1 5 6
M  V30 6 2 6 7
M  V30 7 1 6 8
M  V30 8 1 8 9
M  V30 9 1 9 10
M  V30 10 2 10 11
M  V30 11 1 10 12
M  V30 12 1 12 13
M  V30 13 1 13 14
M  V30 14 1 14 15
M  V30 15 1 15 16
M  V30 16 1 16 17
M  V30 17 2 17 18
M  V30 18 1 17 19
M  V30 19 1 19 20
M  V30 20 1 20 21
M  V30 21 1 21 22
M  V30 22 1 22 23
M  V30 23 1 23 24
M  V30 24 1 24 25
M  V30 25 1 20 26
M  V30 26 2 26 27
M  V30 27 1 26 28
M  V30 28 1 28 29
M  V30 29 2 28 30
M  V30 30 1 15 31
M  V30 31 1 31 32
M  V30 32 1 31 33
M  V30 33 1 9 34
M  V30 34 1 34 35
M  V30 35 1 34 36
M  V30 36 1 34 37
M  V30 37 1 16 12
M  V30 38 1 25 22
M  V30 39 1 31 14
M  V30 40 1 1 38
M  V30 41 1 1 39
M  V30 42 1 1 40
M  V30 43 1 3 41
M  V30 44 1 3 42
M  V30 45 1 3 43
M  V30 46 1 4 44
M  V30 47 1 4 45
M  V30 48 1 4 46
M  V30 49 1 5 47
M  V30 50 1 8 48
M  V30 51 1 9 49 CFG=1
M  V30 52 1 13 50
M  V30 53 1 13 51
M  V30 54 1 14 52 CFG=1
M  V30 55 1 15 53 CFG=1
M  V30 56 1 16 54 CFG=3
M  V30 57 1 19 55
M  V30 58 1 20 56
M  V30 59 1 21 57
M  V30 60 1 21 58
M  V30 61 1 22 59
M  V30 62 1 23 60
M  V30 63 1 23 61
M  V30 64 1 24 62
M  V30 65 1 24 63
M  V30 66 1 25 64
M  V30 67 1 25 65
M  V30 68 1 29 66
M  V30 69 1 29 67
M  V30 70 1 32 68
M  V30 71 1 32 69
M  V30 72 1 32 70
M  V30 73 1 33 71
M  V30 74 1 33 72
M  V30 75 1 33 73
M  V30 76 1 35 74
M  V30 77 1 35 75
M  V30 78 1 35 76
M  V30 79 1 36 77
M  V30 80 1 36 78
M  V30 81 1 36 79
M  V30 82 1 37 80
M  V30 83 1 37 81
M  V30 84 1 37 82
M  V30 END BOND
M  V30 END CTAB
M  END
>  <Dataset>  (119) 
OralDrugs

>  <Ligand_Instance>  (119) 
nan

>  <PDB_ID>  (119) 
nan

>  <Standardized_SMILES>  (119) 
CC(C)(C)NC(=O)N[C@H](C(=O)N1C[C@H]2[C@@H]([C@H]1C(=O)NC(CC1CCC1)C(=O)C(N)=O)C2(C)C)C(C)(C)C

>  <Name>  (119) 
Boceprevir

>  <Pocket>  (119) 
nan

>  <ATP_Site>  (119) 
nan

>  <Peripheral>  (119) 
nan

>  <Num_H_Atoms_ProtBoundConf>  (119) 
nan

>  <Num_Resolved_Atoms>  (119) 
nan

>  <Num_Not_Resolved_Atoms>  (119) 
nan

$$$$
CHEMBL957
     RDKit          3D

  0  0  0  0  0  0  0  0  0  0999 V3000
M  V30 BEGIN CTAB
M  V30 COUNTS 68 71 0 0 0
M  V30 BEGIN ATOM
M  V30 1 C 4.706169 -1.470140 1.857618 0
M  V30 2 O 3.617772 -0.819912 2.460451 0
M  V30 3 C 2.924628 -1.277446 3.566733 0
M  V30 4 C 3.250290 -2.454008 4.200549 0
M  V30 5 C 2.532644 -2.869997 5.296900 0
M  V30 6 C 1.495166 -2.086662 5.734506 0
M  V30 7 C 1.210431 -0.920585 5.066649 0
M  V30 8 C 1.901053 -0.437306 3.942936 0
M  V30 9 O 1.412581 0.736641 3.481379 0
M  V30 10 C 0.911393 1.101049 2.276013 0
M  V30 11 C -0.385750 0.926679 1.842428 0
M  V30 12 N -1.325544 0.314883 2.709275 0
M  V30 13 S -2.969134 0.057511 2.254024 0
M  V30 14 O -3.493204 1.407893 1.775444 0
M  V30 15 O -3.839047 -0.365722 3.374791 0
M  V30 16 C -3.118502 -1.001268 0.863591 0
M  V30 17 C -3.179093 -0.698730 -0.476246 0
M  V30 18 C -3.295745 -1.713560 -1.400673 0
M  V30 19 C -3.352907 -3.032146 -1.000446 0
M  V30 20 C -3.478718 -3.978300 -2.139173 0
M  V30 21 C -2.143597 -4.433822 -2.667800 0
M  V30 22 C -4.302064 -3.430329 -3.272021 0
M  V30 23 C -4.204650 -5.228181 -1.651717 0
M  V30 24 C -3.294348 -3.366052 0.338552 0
M  V30 25 C -3.175745 -2.337039 1.280309 0
M  V30 26 N -0.804975 1.318812 0.626450 0
M  V30 27 C 0.007617 1.913049 -0.264453 0
M  V30 28 C -0.398536 2.356116 -1.590139 0
M  V30 29 N -1.641403 2.224436 -2.079128 0
M  V30 30 C -2.065810 2.608123 -3.272545 0
M  V30 31 C -1.132918 3.200562 -4.087356 0
M  V30 32 C 0.164734 3.370005 -3.653254 0
M  V30 33 N 0.486071 2.942638 -2.422050 0
M  V30 34 N 1.279826 2.100173 0.123912 0
M  V30 35 C 1.738048 1.722596 1.331076 0
M  V30 36 O 3.080089 2.007903 1.538458 0
M  V30 37 C 3.941763 2.622371 0.633397 0
M  V30 38 C 5.346228 2.788107 1.170936 0
M  V30 39 O 5.958739 1.593085 1.504087 0
M  V30 40 H 4.800461 -1.128448 0.788802 0
M  V30 41 H 4.675026 -2.569693 1.896973 0
M  V30 42 H 5.649112 -1.119957 2.352977 0
M  V30 43 H 4.080115 -3.012685 3.794562 0
M  V30 44 H 2.874421 -3.803460 5.712311 0
M  V30 45 H 0.964452 -2.445009 6.587173 0
M  V30 46 H 0.357666 -0.391799 5.523479 0
M  V30 47 H -1.108656 -0.019634 3.669154 0
M  V30 48 H -3.123510 0.370022 -0.616182 0
M  V30 49 H -3.333763 -1.344733 -2.427105 0
M  V30 50 H -1.490113 -4.723025 -1.831175 0
M  V30 51 H -2.366377 -5.293315 -3.352048 0
M  V30 52 H -1.685118 -3.654942 -3.320622 0
M  V30 53 H -4.907546 -4.239824 -3.760626 0
M  V30 54 H -3.654093 -3.020979 -4.072835 0
M  V30 55 H -5.001429 -2.624053 -2.975980 0
M  V30 56 H -5.057350 -4.978079 -0.994379 0
M  V30 57 H -3.492629 -5.922847 -1.129911 0
M  V30 58 H -4.573577 -5.774878 -2.554659 0
M  V30 59 H -3.344643 -4.408340 0.567914 0
M  V30 60 H -3.140469 -2.730083 2.287115 0
M  V30 61 H -3.095353 2.468040 -3.603416 0
M  V30 62 H -1.368823 3.553480 -5.085089 0
M  V30 63 H 0.959370 3.831593 -4.244090 0
M  V30 64 H 3.610292 3.605623 0.286500 0
M  V30 65 H 4.037390 1.939777 -0.244898 0
M  V30 66 H 5.412055 3.500571 1.999334 0
M  V30 67 H 5.931100 3.230788 0.338582 0
M  V30 68 H 6.211214 1.133596 0.669439 0
M  V30 END ATOM
M  V30 BEGIN BOND
M  V30 1 1 1 2
M  V30 2 1 2 3
M  V30 3 2 3 4
M  V30 4 1 4 5
M  V30 5 2 5 6
M  V30 6 1 6 7
M  V30 7 2 7 8
M  V30 8 1 8 9
M  V30 9 1 9 10
M  V30 10 1 10 11
M  V30 11 1 11 12
M  V30 12 1 12 13
M  V30 13 2 13 14
M  V30 14 2 13 15
M  V30 15 1 13 16
M  V30 16 2 16 17
M  V30 17 1 17 18
M  V30 18 2 18 19
M  V30 19 1 19 20
M  V30 20 1 20 21
M  V30 21 1 20 22
M  V30 22 1 20 23
M  V30 23 1 19 24
M  V30 24 2 24 25
M  V30 25 2 11 26
M  V30 26 1 26 27
M  V30 27 1 27 28
M  V30 28 2 28 29
M  V30 29 1 29 30
M  V30 30 2 30 31
M  V30 31 1 31 32
M  V30 32 2 32 33
M  V30 33 2 27 34
M  V30 34 1 34 35
M  V30 35 1 35 36
M  V30 36 1 36 37
M  V30 37 1 37 38
M  V30 38 1 38 39
M  V30 39 1 8 3
M  V30 40 2 35 10
M  V30 41 1 25 16
M  V30 42 1 33 28
M  V30 43 1 1 40
M  V30 44 1 1 41
M  V30 45 1 1 42
M  V30 46 1 4 43
M  V30 47 1 5 44
M  V30 48 1 6 45
M  V30 49 1 7 46
M  V30 50 1 12 47
M  V30 51 1 17 48
M  V30 52 1 18 49
M  V30 53 1 21 50
M  V30 54 1 21 51
M  V30 55 1 21 52
M  V30 56 1 22 53
M  V30 57 1 22 54
M  V30 58 1 22 55
M  V30 59 1 23 56
M  V30 60 1 23 57
M  V30 61 1 23 58
M  V30 62 1 24 59
M  V30 63 1 25 60
M  V30 64 1 30 61
M  V30 65 1 31 62
M  V30 66 1 32 63
M  V30 67 1 37 64
M  V30 68 1 37 65
M  V30 69 1 38 66
M  V30 70 1 38 67
M  V30 71 1 39 68
M  V30 END BOND
M  V30 END CTAB
M  END
>  <Dataset>  (120) 
OralDrugs

>  <Ligand_Instance>  (120) 
nan

>  <PDB_ID>  (120) 
nan

>  <Standardized_SMILES>  (120) 
COc1ccccc1Oc1c(NS(=O)(=O)c2ccc(C(C)(C)C)cc2)nc(-c2ncccn2)nc1OCCO

>  <Name>  (120) 
Bosentan

>  <Pocket>  (120) 
nan

>  <ATP_Site>  (120) 
nan

>  <Peripheral>  (120) 
nan

>  <Num_H_Atoms_ProtBoundConf>  (120) 
nan

>  <Num_Resolved_Atoms>  (120) 
nan

>  <Num_Not_Resolved_Atoms>  (120) 
nan

$$$$
CHEMBL288441
     RDKit          3D

  0  0  0  0  0  0  0  0  0  0999 V3000
M  V30 BEGIN CTAB
M  V30 COUNTS 65 68 0 0 0
M  V30 BEGIN ATOM
M  V30 1 C 7.709231 -0.834657 4.290834 0
M  V30 2 O 7.703872 -1.998395 3.482948 0
M  V30 3 C 6.662903 -2.202287 2.590094 0
M  V30 4 C 5.675000 -1.274395 2.496823 0
M  V30 5 C 4.564053 -1.281555 1.693903 0
M  V30 6 N 3.513374 -0.455363 1.412328 0
M  V30 7 C 2.472693 0.370830 1.078095 0
M  V30 8 C 2.937812 1.469977 0.350701 0
M  V30 9 C 4.343298 1.726356 0.006166 0
M  V30 10 N 5.431740 1.910319 -0.274734 0
M  V30 11 C 2.038800 2.416278 -0.102240 0
M  V30 12 N 0.753622 2.255070 0.173382 0
M  V30 13 C 0.298021 1.220088 0.867896 0
M  V30 14 C -1.020947 1.043816 1.215040 0
M  V30 15 C -1.510240 -0.016076 1.981419 0
M  V30 16 O -2.814775 -0.222314 2.347514 0
M  V30 17 C -3.839866 0.612303 1.873848 0
M  V30 18 C -4.017018 0.322766 0.400831 0
M  V30 19 C -5.054616 1.187818 -0.275471 0
M  V30 20 N -5.166677 0.764133 -1.629164 0
M  V30 21 C -4.075927 1.017644 -2.500446 0
M  V30 22 C -4.429338 0.314540 -3.818639 0
M  V30 23 N -4.245881 -1.089816 -3.618031 0
M  V30 24 C -4.716823 -1.841207 -4.738160 0
M  V30 25 C -4.847584 -1.521471 -2.366401 0
M  V30 26 C -5.807054 -0.501081 -1.814037 0
M  V30 27 C -0.574896 -0.968439 2.424060 0
M  V30 28 O -1.013469 -2.007743 3.169276 0
M  V30 29 C -0.382865 -3.086301 3.747301 0
M  V30 30 C 0.784479 -0.854886 2.108391 0
M  V30 31 C 1.128786 0.237571 1.346724 0
M  V30 32 C 4.469940 -2.420270 0.864803 0
M  V30 33 Cl 3.179482 -2.763787 -0.289213 0
M  V30 34 C 5.402857 -3.410485 0.874521 0
M  V30 35 C 6.477067 -3.257579 1.750862 0
M  V30 36 Cl 7.717715 -4.498333 1.803820 0
M  V30 37 H 6.694418 -0.744295 4.777192 0
M  V30 38 H 8.008380 0.089647 3.785721 0
M  V30 39 H 8.434465 -1.022294 5.127375 0
M  V30 40 H 5.657996 -0.346716 3.091088 0
M  V30 41 H 3.287067 -0.453327 2.466359 0
M  V30 42 H 2.261997 3.311936 -0.670080 0
M  V30 43 H -1.703300 1.824467 0.867392 0
M  V30 44 H -3.508029 1.687010 2.017197 0
M  V30 45 H -4.755559 0.517624 2.455233 0
M  V30 46 H -4.411588 -0.765711 0.394612 0
M  V30 47 H -3.073957 0.331266 -0.107849 0
M  V30 48 H -4.650982 2.245189 -0.276961 0
M  V30 49 H -5.997941 1.244624 0.264604 0
M  V30 50 H -3.911996 2.093484 -2.644507 0
M  V30 51 H -3.167222 0.527594 -2.108631 0
M  V30 52 H -3.814832 0.699238 -4.644198 0
M  V30 53 H -5.519594 0.496779 -3.970923 0
M  V30 54 H -5.825138 -1.888687 -4.702335 0
M  V30 55 H -4.425554 -1.308533 -5.674595 0
M  V30 56 H -4.264529 -2.860333 -4.785363 0
M  V30 57 H -4.005593 -1.696932 -1.681293 0
M  V30 58 H -5.380598 -2.496608 -2.494479 0
M  V30 59 H -6.696622 -0.499202 -2.455221 0
M  V30 60 H -6.146503 -0.868979 -0.824033 0
M  V30 61 H 0.604946 -2.762039 4.139040 0
M  V30 62 H -0.143847 -3.912423 3.015355 0
M  V30 63 H -0.907188 -3.524484 4.621916 0
M  V30 64 H 1.511922 -1.564944 2.424323 0
M  V30 65 H 5.421551 -4.324225 0.272805 0
M  V30 END ATOM
M  V30 BEGIN BOND
M  V30 1 1 1 2
M  V30 2 1 2 3
M  V30 3 2 3 4
M  V30 4 1 4 5
M  V30 5 1 5 6
M  V30 6 1 6 7
M  V30 7 2 7 8
M  V30 8 1 8 9
M  V30 9 3 9 10
M  V30 10 1 8 11
M  V30 11 2 11 12
M  V30 12 1 12 13
M  V30 13 2 13 14
M  V30 14 1 14 15
M  V30 15 1 15 16
M  V30 16 1 16 17
M  V30 17 1 17 18
M  V30 18 1 18 19
M  V30 19 1 19 20
M  V30 20 1 20 21
M  V30 21 1 21 22
M  V30 22 1 22 23
M  V30 23 1 23 24
M  V30 24 1 23 25
M  V30 25 1 25 26
M  V30 26 2 15 27
M  V30 27 1 27 28
M  V30 28 1 28 29
M  V30 29 1 27 30
M  V30 30 2 30 31
M  V30 31 2 5 32
M  V30 32 1 32 33
M  V30 33 1 32 34
M  V30 34 2 34 35
M  V30 35 1 35 36
M  V30 36 1 35 3
M  V30 37 1 31 7
M  V30 38 1 31 13
M  V30 39 1 26 20
M  V30 40 1 1 37
M  V30 41 1 1 38
M  V30 42 1 1 39
M  V30 43 1 4 40
M  V30 44 1 6 41
M  V30 45 1 11 42
M  V30 46 1 14 43
M  V30 47 1 17 44
M  V30 48 1 17 45
M  V30 49 1 18 46
M  V30 50 1 18 47
M  V30 51 1 19 48
M  V30 52 1 19 49
M  V30 53 1 21 50
M  V30 54 1 21 51
M  V30 55 1 22 52
M  V30 56 1 22 53
M  V30 57 1 24 54
M  V30 58 1 24 55
M  V30 59 1 24 56
M  V30 60 1 25 57
M  V30 61 1 25 58
M  V30 62 1 26 59
M  V30 63 1 26 60
M  V30 64 1 29 61
M  V30 65 1 29 62
M  V30 66 1 29 63
M  V30 67 1 30 64
M  V30 68 1 34 65
M  V30 END BOND
M  V30 END CTAB
M  END
>  <Dataset>  (121) 
OralDrugs

>  <Ligand_Instance>  (121) 
nan

>  <PDB_ID>  (121) 
nan

>  <Standardized_SMILES>  (121) 
COc1cc(Nc2c(C#N)cnc3cc(OCCCN4CCN(C)CC4)c(OC)cc23)c(Cl)cc1Cl

>  <Name>  (121) 
Bosutinib

>  <Pocket>  (121) 
nan

>  <ATP_Site>  (121) 
nan

>  <Peripheral>  (121) 
nan

>  <Num_H_Atoms_ProtBoundConf>  (121) 
nan

>  <Num_Resolved_Atoms>  (121) 
nan

>  <Num_Not_Resolved_Atoms>  (121) 
nan

$$$$
CHEMBL2105760
     RDKit          3D

  0  0  0  0  0  0  0  0  0  0999 V3000
M  V30 BEGIN CTAB
M  V30 COUNTS 58 62 0 0 0
M  V30 BEGIN ATOM
M  V30 1 O 4.687968 -7.783459 2.644530 0
M  V30 2 C 3.936059 -6.760096 2.665955 0
M  V30 3 C 2.596079 -6.980166 2.984378 0
M  V30 4 C 1.778723 -5.894296 3.010490 0
M  V30 5 C 2.225029 -4.596099 2.735853 0
M  V30 6 C 1.412467 -3.500146 2.758420 0
M  V30 7 C 1.895929 -2.254490 2.481304 0
M  V30 8 C 3.211749 -2.016543 2.164432 0
M  V30 9 O 3.958347 -0.931579 1.847274 0
M  V30 10 C 3.552401 0.360459 1.718020 0
M  V30 11 C 2.553744 0.630679 0.573024 0
M  V30 12 C 2.258968 2.080618 0.648462 0
M  V30 13 C 1.351978 2.695301 -0.340455 0
M  V30 14 N 0.032324 2.182967 -0.446711 0
M  V30 15 C -0.860588 3.082824 -1.186357 0
M  V30 16 C -2.246804 2.518152 -1.285712 0
M  V30 17 N -2.326337 1.091249 -1.111005 0
M  V30 18 C -3.504318 0.337266 -1.345915 0
M  V30 19 C -3.405613 -0.555912 -2.389752 0
M  V30 20 C -4.373629 -1.404701 -2.853202 0
M  V30 21 C -5.592470 -1.361921 -2.199090 0
M  V30 22 C -5.695034 -0.474769 -1.160176 0
M  V30 23 S -7.145756 -0.117947 -0.035899 0
M  V30 24 C -6.256267 1.161885 0.949221 0
M  V30 25 C -5.024875 1.195110 0.370633 0
M  V30 26 C -4.704508 0.393457 -0.685608 0
M  V30 27 C -1.213932 0.220735 -0.675170 0
M  V30 28 C 0.006661 0.935428 -1.223010 0
M  V30 29 C 3.996309 -3.178234 2.157916 0
M  V30 30 C 3.585923 -4.489080 2.428984 0
M  V30 31 N 4.412154 -5.529937 2.394517 0
M  V30 32 H 2.213563 -7.984993 3.204604 0
M  V30 33 H 0.711433 -5.959713 3.248554 0
M  V30 34 H 0.364171 -3.603568 2.997341 0
M  V30 35 H 1.268850 -1.384528 2.517757 0
M  V30 36 H 3.091808 0.717639 2.687159 0
M  V30 37 H 4.451043 1.015991 1.590929 0
M  V30 38 H 3.133609 0.360156 -0.354262 0
M  V30 39 H 1.717387 -0.032693 0.783281 0
M  V30 40 H 3.246475 2.615123 0.626501 0
M  V30 41 H 1.876379 2.271843 1.702324 0
M  V30 42 H 1.805160 2.607114 -1.367028 0
M  V30 43 H 1.375697 3.806370 -0.154332 0
M  V30 44 H -0.442357 3.169760 -2.202885 0
M  V30 45 H -0.823439 4.076717 -0.711681 0
M  V30 46 H -2.730527 2.844782 -2.252653 0
M  V30 47 H -2.840952 3.000598 -0.489028 0
M  V30 48 H -2.468807 -0.657835 -2.970920 0
M  V30 49 H -4.281424 -2.098187 -3.672331 0
M  V30 50 H -6.468401 -1.953396 -2.424311 0
M  V30 51 H -6.811724 1.587791 1.702585 0
M  V30 52 H -4.408693 1.914447 0.873922 0
M  V30 53 H -1.221615 0.298052 0.451466 0
M  V30 54 H -1.298582 -0.802276 -1.025030 0
M  V30 55 H -0.218460 1.269034 -2.289717 0
M  V30 56 H 0.918912 0.382025 -1.266293 0
M  V30 57 H 5.079967 -3.158319 1.922813 0
M  V30 58 H 5.402454 -5.396541 2.163147 0
M  V30 END ATOM
M  V30 BEGIN BOND
M  V30 1 2 1 2
M  V30 2 1 2 3
M  V30 3 2 3 4
M  V30 4 1 4 5
M  V30 5 2 5 6
M  V30 6 1 6 7
M  V30 7 2 7 8
M  V30 8 1 8 9
M  V30 9 1 9 10
M  V30 10 1 10 11
M  V30 11 1 11 12
M  V30 12 1 12 13
M  V30 13 1 13 14
M  V30 14 1 14 15
M  V30 15 1 15 16
M  V30 16 1 16 17
M  V30 17 1 17 18
M  V30 18 2 18 19
M  V30 19 1 19 20
M  V30 20 2 20 21
M  V30 21 1 21 22
M  V30 22 1 22 23
M  V30 23 1 23 24
M  V30 24 2 24 25
M  V30 25 1 25 26
M  V30 26 1 17 27
M  V30 27 1 27 28
M  V30 28 1 8 29
M  V30 29 2 29 30
M  V30 30 1 30 31
M  V30 31 1 31 2
M  V30 32 1 30 5
M  V30 33 1 28 14
M  V30 34 1 26 18
M  V30 35 2 26 22
M  V30 36 1 3 32
M  V30 37 1 4 33
M  V30 38 1 6 34
M  V30 39 1 7 35
M  V30 40 1 10 36
M  V30 41 1 10 37
M  V30 42 1 11 38
M  V30 43 1 11 39
M  V30 44 1 12 40
M  V30 45 1 12 41
M  V30 46 1 13 42
M  V30 47 1 13 43
M  V30 48 1 15 44
M  V30 49 1 15 45
M  V30 50 1 16 46
M  V30 51 1 16 47
M  V30 52 1 19 48
M  V30 53 1 20 49
M  V30 54 1 21 50
M  V30 55 1 24 51
M  V30 56 1 25 52
M  V30 57 1 27 53
M  V30 58 1 27 54
M  V30 59 1 28 55
M  V30 60 1 28 56
M  V30 61 1 29 57
M  V30 62 1 31 58
M  V30 END BOND
M  V30 END CTAB
M  END
>  <Dataset>  (122) 
OralDrugs

>  <Ligand_Instance>  (122) 
nan

>  <PDB_ID>  (122) 
nan

>  <Standardized_SMILES>  (122) 
O=c1ccc2ccc(OCCCCN3CCN(c4cccc5sccc45)CC3)cc2[nH]1

>  <Name>  (122) 
Brexpiprazole

>  <Pocket>  (122) 
nan

>  <ATP_Site>  (122) 
nan

>  <Peripheral>  (122) 
nan

>  <Num_H_Atoms_ProtBoundConf>  (122) 
nan

>  <Num_Resolved_Atoms>  (122) 
nan

>  <Num_Not_Resolved_Atoms>  (122) 
nan

$$$$
CHEMBL3545311
     RDKit          3D

  0  0  0  0  0  0  0  0  0  0999 V3000
M  V30 BEGIN CTAB
M  V30 COUNTS 79 83 0 0 0
M  V30 BEGIN ATOM
M  V30 1 C 2.247544 -0.831667 5.373830 0
M  V30 2 O 2.061959 -1.773173 4.318861 0
M  V30 3 C 0.875739 -1.711774 3.589610 0
M  V30 4 C -0.076075 -0.748408 3.904526 0
M  V30 5 C -1.252898 -0.682795 3.189684 0
M  V30 6 N -2.285093 0.299621 3.418827 0
M  V30 7 C -3.677221 0.139914 3.132114 0
M  V30 8 C -4.146278 1.036987 2.013890 0
M  V30 9 C -3.383205 2.302950 1.909501 0
M  V30 10 N -2.620425 2.449647 0.701401 0
M  V30 11 C -3.401863 2.393593 -0.494363 0
M  V30 12 C -2.782709 1.587901 -1.611171 0
M  V30 13 N -1.393748 1.833313 -1.786740 0
M  V30 14 C -1.069632 2.508999 -3.021147 0
M  V30 15 C -0.696657 2.318635 -0.637772 0
M  V30 16 C -1.414899 1.723448 0.588951 0
M  V30 17 C -2.546492 2.681066 3.090993 0
M  V30 18 C -2.029088 1.604185 3.959631 0
M  V30 19 C -1.498816 -1.580308 2.147130 0
M  V30 20 C -0.502216 -2.504882 1.899639 0
M  V30 21 C 0.696738 -2.620936 2.578404 0
M  V30 22 N 1.683451 -3.593835 2.240035 0
M  V30 23 C 1.363719 -4.466330 1.148658 0
M  V30 24 N 1.091165 -5.778657 0.991298 0
M  V30 25 C 0.798944 -6.279462 -0.221057 0
M  V30 26 C 0.758440 -5.501853 -1.363571 0
M  V30 27 Cl 0.363072 -6.304899 -2.863461 0
M  V30 28 C 1.041076 -4.154677 -1.185685 0
M  V30 29 N 0.982717 -3.370813 -2.364524 0
M  V30 30 C 1.709897 -2.880352 -3.469931 0
M  V30 31 C 1.138906 -3.340630 -4.665618 0
M  V30 32 C 1.695717 -2.975929 -5.890294 0
M  V30 33 C 2.799150 -2.165022 -5.825108 0
M  V30 34 C 3.378895 -1.698820 -4.656528 0
M  V30 35 C 2.817368 -2.067290 -3.447234 0
M  V30 36 P 3.447084 -1.553644 -1.886596 0
M  V30 37 C 2.245458 -0.728444 -0.831142 0
M  V30 38 C 4.812479 -0.368352 -2.189344 0
M  V30 39 O 4.067299 -2.699877 -1.111858 0
M  V30 40 N 1.322554 -3.723350 0.036418 0
M  V30 41 H 3.151390 -1.094871 5.962826 0
M  V30 42 H 2.227261 0.209672 5.021509 0
M  V30 43 H 1.398747 -0.934721 6.106023 0
M  V30 44 H 0.077852 -0.036934 4.702882 0
M  V30 45 H -4.280939 0.342006 4.043062 0
M  V30 46 H -3.867426 -0.929242 2.885114 0
M  V30 47 H -5.234420 1.219691 2.186355 0
M  V30 48 H -4.116825 0.408862 1.097973 0
M  V30 49 H -4.149336 3.150317 1.835352 0
M  V30 50 H -4.380291 1.910842 -0.243890 0
M  V30 51 H -3.656924 3.427507 -0.827949 0
M  V30 52 H -3.290904 1.917107 -2.563822 0
M  V30 53 H -2.993538 0.513638 -1.518863 0
M  V30 54 H 0.012018 2.580272 -3.137529 0
M  V30 55 H -1.552333 3.486999 -3.109516 0
M  V30 56 H -1.466715 1.900423 -3.877377 0
M  V30 57 H 0.375865 2.062710 -0.647918 0
M  V30 58 H -0.821639 3.432692 -0.596495 0
M  V30 59 H -0.758925 1.792241 1.454968 0
M  V30 60 H -1.543182 0.645286 0.281182 0
M  V30 61 H -3.099596 3.406527 3.761437 0
M  V30 62 H -1.634666 3.219960 2.677488 0
M  V30 63 H -0.946696 1.741965 4.218917 0
M  V30 64 H -2.560307 1.636874 4.946002 0
M  V30 65 H -2.410172 -1.544941 1.580316 0
M  V30 66 H -0.735320 -3.188828 1.077158 0
M  V30 67 H 2.560300 -3.583161 2.822031 0
M  V30 68 H 0.605023 -7.342901 -0.177835 0
M  V30 69 H -0.038182 -3.070130 -2.320644 0
M  V30 70 H 0.263179 -3.982084 -4.749839 0
M  V30 71 H 1.268750 -3.321765 -6.821086 0
M  V30 72 H 3.267251 -1.854143 -6.732459 0
M  V30 73 H 4.253458 -1.057147 -4.648695 0
M  V30 74 H 2.369968 0.363293 -0.941768 0
M  V30 75 H 1.190912 -0.941849 -1.145174 0
M  V30 76 H 2.394620 -0.962148 0.245849 0
M  V30 77 H 5.352601 -0.191257 -1.233419 0
M  V30 78 H 5.499098 -0.699136 -2.968569 0
M  V30 79 H 4.368438 0.616008 -2.450051 0
M  V30 END ATOM
M  V30 BEGIN BOND
M  V30 1 1 1 2
M  V30 2 1 2 3
M  V30 3 2 3 4
M  V30 4 1 4 5
M  V30 5 1 5 6
M  V30 6 1 6 7
M  V30 7 1 7 8
M  V30 8 1 8 9
M  V30 9 1 9 10
M  V30 10 1 10 11
M  V30 11 1 11 12
M  V30 12 1 12 13
M  V30 13 1 13 14
M  V30 14 1 13 15
M  V30 15 1 15 16
M  V30 16 1 9 17
M  V30 17 1 17 18
M  V30 18 2 5 19
M  V30 19 1 19 20
M  V30 20 2 20 21
M  V30 21 1 21 22
M  V30 22 1 22 23
M  V30 23 2 23 24
M  V30 24 1 24 25
M  V30 25 2 25 26
M  V30 26 1 26 27
M  V30 27 1 26 28
M  V30 28 1 28 29
M  V30 29 1 29 30
M  V30 30 2 30 31
M  V30 31 1 31 32
M  V30 32 2 32 33
M  V30 33 1 33 34
M  V30 34 2 34 35
M  V30 35 1 35 36
M  V30 36 1 36 37
M  V30 37 1 36 38
M  V30 38 2 36 39
M  V30 39 2 28 40
M  V30 40 1 21 3
M  V30 41 1 40 23
M  V30 42 1 18 6
M  V30 43 1 35 30
M  V30 44 1 16 10
M  V30 45 1 1 41
M  V30 46 1 1 42
M  V30 47 1 1 43
M  V30 48 1 4 44
M  V30 49 1 7 45
M  V30 50 1 7 46
M  V30 51 1 8 47
M  V30 52 1 8 48
M  V30 53 1 9 49
M  V30 54 1 11 50
M  V30 55 1 11 51
M  V30 56 1 12 52
M  V30 57 1 12 53
M  V30 58 1 14 54
M  V30 59 1 14 55
M  V30 60 1 14 56
M  V30 61 1 15 57
M  V30 62 1 15 58
M  V30 63 1 16 59
M  V30 64 1 16 60
M  V30 65 1 17 61
M  V30 66 1 17 62
M  V30 67 1 18 63
M  V30 68 1 18 64
M  V30 69 1 19 65
M  V30 70 1 20 66
M  V30 71 1 22 67
M  V30 72 1 25 68
M  V30 73 1 29 69
M  V30 74 1 31 70
M  V30 75 1 32 71
M  V30 76 1 33 72
M  V30 77 1 34 73
M  V30 78 1 37 74
M  V30 79 1 37 75
M  V30 80 1 37 76
M  V30 81 1 38 77
M  V30 82 1 38 78
M  V30 83 1 38 79
M  V30 END BOND
M  V30 END CTAB
M  END
>  <Dataset>  (123) 
OralDrugs

>  <Ligand_Instance>  (123) 
nan

>  <PDB_ID>  (123) 
nan

>  <Standardized_SMILES>  (123) 
COc1cc(N2CCC(N3CCN(C)CC3)CC2)ccc1Nc1ncc(Cl)c(Nc2ccccc2P(C)(C)=O)n1

>  <Name>  (123) 
Brigatinib

>  <Pocket>  (123) 
nan

>  <ATP_Site>  (123) 
nan

>  <Peripheral>  (123) 
nan

>  <Num_H_Atoms_ProtBoundConf>  (123) 
nan

>  <Num_Resolved_Atoms>  (123) 
nan

>  <Num_Not_Resolved_Atoms>  (123) 
nan

$$$$
CHEMBL607400
     RDKit          3D

  0  0  0  0  0  0  0  0  0  0999 V3000
M  V30 BEGIN CTAB
M  V30 COUNTS 35 35 0 0 0
M  V30 BEGIN ATOM
M  V30 1 C -2.641714 -2.276028 2.301684 0
M  V30 2 C -2.138331 -1.163983 3.162613 0
M  V30 3 C -1.564563 -0.015615 2.340709 0
M  V30 4 C -0.436977 -0.564322 1.538488 0 CFG=2
M  V30 5 C 0.673713 -1.156320 2.383604 0
M  V30 6 C 1.729286 -1.246811 1.306564 0
M  V30 7 O 2.771027 -1.969025 1.383648 0
M  V30 8 N 1.356253 -0.391345 0.203873 0
M  V30 9 C 1.866337 -0.461100 -1.142656 0 CFG=1
M  V30 10 C 0.831427 -0.881671 -2.143214 0
M  V30 11 C -0.361621 -0.002256 -2.258420 0
M  V30 12 C 2.616563 0.743640 -1.473061 0
M  V30 13 N 2.759454 1.781298 -0.516196 0
M  V30 14 O 3.305009 1.561693 -2.139008 0
M  V30 15 C 0.376253 0.498408 0.830815 0
M  V30 16 H -2.948581 -1.904525 1.287505 0
M  V30 17 H -1.889026 -3.104275 2.204037 0
M  V30 18 H -3.544258 -2.759077 2.728598 0
M  V30 19 H -1.358801 -1.564823 3.831673 0
M  V30 20 H -3.021121 -0.785097 3.740054 0
M  V30 21 H -1.212312 0.776494 3.001517 0
M  V30 22 H -2.344719 0.320724 1.637355 0
M  V30 23 H -0.716053 -1.308236 0.794406 0
M  V30 24 H 0.991456 -0.419424 3.152477 0
M  V30 25 H 0.450485 -2.142761 2.794802 0
M  V30 26 H 2.603113 -1.319095 -1.121401 0
M  V30 27 H 1.245097 -1.068053 -3.147015 0
M  V30 28 H 0.458767 -1.881863 -1.796538 0
M  V30 29 H -1.174630 -0.262391 -1.549336 0
M  V30 30 H -0.120599 1.086365 -2.261013 0
M  V30 31 H -0.817647 -0.168116 -3.268039 0
M  V30 32 H 2.870528 2.559884 0.199516 0
M  V30 33 H 2.524902 2.432066 0.273072 0
M  V30 34 H 0.930475 1.063671 1.610206 0
M  V30 35 H -0.175031 1.120515 0.137972 0
M  V30 END ATOM
M  V30 BEGIN BOND
M  V30 1 1 1 2
M  V30 2 1 2 3
M  V30 3 1 3 4
M  V30 4 1 4 5
M  V30 5 1 5 6
M  V30 6 2 6 7
M  V30 7 1 6 8
M  V30 8 1 8 9
M  V30 9 1 9 10
M  V30 10 1 10 11
M  V30 11 1 9 12
M  V30 12 1 12 13
M  V30 13 2 12 14
M  V30 14 1 8 15
M  V30 15 1 15 4
M  V30 16 1 1 16
M  V30 17 1 1 17
M  V30 18 1 1 18
M  V30 19 1 2 19
M  V30 20 1 2 20
M  V30 21 1 3 21
M  V30 22 1 3 22
M  V30 23 1 4 23 CFG=3
M  V30 24 1 5 24
M  V30 25 1 5 25
M  V30 26 1 9 26 CFG=1
M  V30 27 1 10 27
M  V30 28 1 10 28
M  V30 29 1 11 29
M  V30 30 1 11 30
M  V30 31 1 11 31
M  V30 32 1 13 32
M  V30 33 1 13 33
M  V30 34 1 15 34
M  V30 35 1 15 35
M  V30 END BOND
M  V30 END CTAB
M  END
>  <Dataset>  (124) 
OralDrugs

>  <Ligand_Instance>  (124) 
nan

>  <PDB_ID>  (124) 
nan

>  <Standardized_SMILES>  (124) 
CCC[C@@H]1CC(=O)N([C@@H](CC)C(N)=O)C1

>  <Name>  (124) 
Brivaracetam

>  <Pocket>  (124) 
nan

>  <ATP_Site>  (124) 
nan

>  <Peripheral>  (124) 
nan

>  <Num_H_Atoms_ProtBoundConf>  (124) 
nan

>  <Num_Resolved_Atoms>  (124) 
nan

>  <Num_Not_Resolved_Atoms>  (124) 
nan

$$$$
CHEMBL493
     RDKit          3D

  0  0  0  0  0  0  0  0  0  0999 V3000
M  V30 BEGIN CTAB
M  V30 COUNTS 83 89 0 0 0
M  V30 BEGIN ATOM
M  V30 1 C 1.374729 -2.883442 5.265527 0
M  V30 2 C 1.848038 -2.179970 3.987697 0
M  V30 3 C 0.771163 -2.295941 2.984815 0
M  V30 4 C 2.388720 -0.846964 4.286949 0
M  V30 5 C 2.900671 -0.002119 3.193781 0 CFG=1
M  V30 6 C 4.039220 -0.650385 2.447069 0
M  V30 7 O 4.862254 -1.366440 3.097554 0
M  V30 8 N 4.203169 -0.474616 1.043219 0
M  V30 9 C 4.845167 -1.261012 0.014346 0
M  V30 10 C 4.967664 -0.278883 -1.132164 0
M  V30 11 C 3.777122 0.641212 -0.998976 0
M  V30 12 C 3.616617 0.734801 0.493559 0 CFG=1
M  V30 13 C 2.147746 0.720853 0.849800 0 CFG=2
M  V30 14 O 1.516904 -0.281593 0.148420 0
M  V30 15 O 1.590447 1.974912 0.620920 0
M  V30 16 C 0.347543 1.940293 1.273862 0 CFG=2
M  V30 17 N -0.590913 1.343696 0.387034 0
M  V30 18 C -1.970040 1.189702 0.664712 0
M  V30 19 O -2.355748 1.631523 1.803084 0
M  V30 20 C -2.913068 0.565951 -0.279055 0 CFG=2
M  V30 21 C -2.461325 -0.837171 -0.523055 0
M  V30 22 C -2.526734 -1.352763 -1.739707 0
M  V30 23 C -2.056493 -2.730110 -1.854815 0
M  V30 24 C -1.225957 -3.351030 -0.940657 0
M  V30 25 C -0.865189 -4.680250 -1.197610 0
M  V30 26 C -1.317857 -5.367091 -2.329562 0
M  V30 27 C -2.147379 -4.760088 -3.251205 0
M  V30 28 N -2.778319 -5.038470 -4.411332 0
M  V30 29 C -3.470932 -3.928292 -4.809007 0
M  V30 30 Br -4.497690 -3.906982 -6.404145 0
M  V30 31 C -3.291931 -2.889463 -3.885889 0
M  V30 32 C -2.465655 -3.464930 -2.948300 0
M  V30 33 C -3.829128 -1.511067 -3.869052 0
M  V30 34 C -3.026964 -0.666074 -2.956811 0 CFG=1
M  V30 35 N -3.675433 0.554345 -2.611006 0
M  V30 36 C -5.080464 0.601567 -2.799070 0
M  V30 37 C -3.109784 1.304730 -1.557823 0
M  V30 38 C 0.004939 3.378276 1.613329 0
M  V30 39 C -0.080689 4.210203 0.375486 0
M  V30 40 C 1.193469 3.901024 2.414290 0
M  V30 41 C 0.691769 1.167155 2.479011 0
M  V30 42 O -0.093066 1.087912 3.486131 0
M  V30 43 N 1.973761 0.580717 2.293399 0
M  V30 44 H 2.098676 -2.601642 6.085366 0
M  V30 45 H 1.373161 -3.976614 5.167005 0
M  V30 46 H 0.418066 -2.433453 5.571656 0
M  V30 47 H 2.686881 -2.846258 3.627280 0
M  V30 48 H -0.077673 -1.622690 3.058686 0
M  V30 49 H 0.329512 -3.330514 3.109369 0
M  V30 50 H 1.175053 -2.338777 1.930843 0
M  V30 51 H 1.570139 -0.256081 4.788980 0
M  V30 52 H 3.176766 -0.903026 5.081160 0
M  V30 53 H 3.429511 0.859512 3.710797 0
M  V30 54 H 4.200843 -2.086352 -0.369842 0
M  V30 55 H 5.832289 -1.664839 0.316132 0
M  V30 56 H 5.910246 0.295373 -1.057712 0
M  V30 57 H 4.881404 -0.790766 -2.126382 0
M  V30 58 H 2.891221 0.276789 -1.531342 0
M  V30 59 H 4.064312 1.628468 -1.415104 0
M  V30 60 H 4.071569 1.642085 0.919737 0
M  V30 61 H 2.061312 -1.061187 -0.046048 0
M  V30 62 H -0.318086 0.967930 -0.558759 0
M  V30 63 H -3.892396 0.487014 0.233782 0
M  V30 64 H -2.109435 -1.334807 0.346580 0
M  V30 65 H -0.882274 -2.827415 -0.086552 0
M  V30 66 H -0.214634 -5.188578 -0.494018 0
M  V30 67 H -1.041756 -6.394390 -2.532146 0
M  V30 68 H -2.702040 -5.963545 -4.863523 0
M  V30 69 H -3.705448 -1.117137 -4.902229 0
M  V30 70 H -4.917553 -1.527742 -3.654547 0
M  V30 71 H -2.091674 -0.365113 -3.516920 0
M  V30 72 H -5.656349 -0.198933 -2.296086 0
M  V30 73 H -5.287068 0.647208 -3.890533 0
M  V30 74 H -5.440962 1.563605 -2.376875 0
M  V30 75 H -2.180902 1.771504 -1.974055 0
M  V30 76 H -3.784750 2.166110 -1.357101 0
M  V30 77 H -0.902040 3.405320 2.218236 0
M  V30 78 H -1.002998 4.068863 -0.214218 0
M  V30 79 H 0.840295 4.080962 -0.225335 0
M  V30 80 H -0.110602 5.288868 0.693895 0
M  V30 81 H 2.120686 3.306851 2.202107 0
M  V30 82 H 0.980520 3.891476 3.498041 0
M  V30 83 H 1.452279 4.939534 2.114322 0
M  V30 END ATOM
M  V30 BEGIN BOND
M  V30 1 1 1 2
M  V30 2 1 2 3
M  V30 3 1 2 4
M  V30 4 1 4 5
M  V30 5 1 5 6
M  V30 6 2 6 7
M  V30 7 1 6 8
M  V30 8 1 8 9
M  V30 9 1 9 10
M  V30 10 1 10 11
M  V30 11 1 11 12
M  V30 12 1 12 13
M  V30 13 1 13 14 CFG=3
M  V30 14 1 13 15
M  V30 15 1 15 16
M  V30 16 1 16 17 CFG=3
M  V30 17 1 17 18
M  V30 18 2 18 19
M  V30 19 1 18 20
M  V30 20 1 20 21
M  V30 21 2 21 22
M  V30 22 1 22 23
M  V30 23 2 23 24
M  V30 24 1 24 25
M  V30 25 2 25 26
M  V30 26 1 26 27
M  V30 27 1 27 28
M  V30 28 1 28 29
M  V30 29 1 29 30
M  V30 30 2 29 31
M  V30 31 1 31 32
M  V30 32 1 31 33
M  V30 33 1 33 34
M  V30 34 1 34 35
M  V30 35 1 35 36
M  V30 36 1 35 37
M  V30 37 1 16 38
M  V30 38 1 38 39
M  V30 39 1 38 40
M  V30 40 1 16 41
M  V30 41 2 41 42
M  V30 42 1 41 43
M  V30 43 1 43 5
M  V30 44 1 12 8
M  V30 45 1 43 13
M  V30 46 1 37 20
M  V30 47 1 34 22
M  V30 48 1 32 23
M  V30 49 2 32 27
M  V30 50 1 1 44
M  V30 51 1 1 45
M  V30 52 1 1 46
M  V30 53 1 2 47
M  V30 54 1 3 48
M  V30 55 1 3 49
M  V30 56 1 3 50
M  V30 57 1 4 51
M  V30 58 1 4 52
M  V30 59 1 5 53 CFG=1
M  V30 60 1 9 54
M  V30 61 1 9 55
M  V30 62 1 10 56
M  V30 63 1 10 57
M  V30 64 1 11 58
M  V30 65 1 11 59
M  V30 66 1 12 60 CFG=1
M  V30 67 1 14 61
M  V30 68 1 17 62
M  V30 69 1 20 63 CFG=1
M  V30 70 1 21 64
M  V30 71 1 24 65
M  V30 72 1 25 66
M  V30 73 1 26 67
M  V30 74 1 28 68
M  V30 75 1 33 69
M  V30 76 1 33 70
M  V30 77 1 34 71 CFG=3
M  V30 78 1 36 72
M  V30 79 1 36 73
M  V30 80 1 36 74
M  V30 81 1 37 75
M  V30 82 1 37 76
M  V30 83 1 38 77
M  V30 84 1 39 78
M  V30 85 1 39 79
M  V30 86 1 39 80
M  V30 87 1 40 81
M  V30 88 1 40 82
M  V30 89 1 40 83
M  V30 END BOND
M  V30 END CTAB
M  END
>  <Dataset>  (125) 
OralDrugs

>  <Ligand_Instance>  (125) 
nan

>  <PDB_ID>  (125) 
nan

>  <Standardized_SMILES>  (125) 
CC(C)C[C@H]1C(=O)N2CCC[C@H]2[C@]2(O)O[C@](NC(=O)[C@@H]3C=C4c5cccc6[nH]c(Br)c(c56)C[C@H]4N(C)C3)(C(C)C)C(=O)N12

>  <Name>  (125) 
Bromocriptine

>  <Pocket>  (125) 
nan

>  <ATP_Site>  (125) 
nan

>  <Peripheral>  (125) 
nan

>  <Num_H_Atoms_ProtBoundConf>  (125) 
nan

>  <Num_Resolved_Atoms>  (125) 
nan

>  <Num_Not_Resolved_Atoms>  (125) 
nan

$$$$
CHEMBL1201245
     RDKit          3D

  0  0  0  0  0  0  0  0  0  0999 V3000
M  V30 BEGIN CTAB
M  V30 COUNTS 40 41 0 0 0
M  V30 BEGIN ATOM
M  V30 1 C -0.054228 -3.616747 3.153880 0
M  V30 2 N 0.174092 -3.782910 1.773379 0
M  V30 3 C -0.928259 -4.042086 0.924011 0
M  V30 4 C 1.385752 -3.349261 1.209932 0
M  V30 5 C 1.586886 -1.854263 1.183853 0
M  V30 6 O 0.614308 -1.170865 0.463715 0
M  V30 7 C 0.941672 0.180940 0.513809 0
M  V30 8 C 1.185754 0.813560 -0.778000 0
M  V30 9 C 0.314719 0.563300 -1.836143 0
M  V30 10 C 0.524672 1.142332 -3.067911 0
M  V30 11 C 1.590709 1.989020 -3.324874 0
M  V30 12 C 2.481379 2.260188 -2.288766 0
M  V30 13 C 2.252675 1.671106 -1.064529 0
M  V30 14 C -0.098369 0.857393 1.347372 0
M  V30 15 C 0.172567 1.811705 2.298959 0
M  V30 16 C -0.866833 2.383122 3.039351 0
M  V30 17 C -2.157832 1.972407 2.797083 0
M  V30 18 Br -3.552011 2.777386 3.845314 0
M  V30 19 C -2.441619 1.019968 1.848691 0
M  V30 20 C -1.413840 0.443125 1.104160 0
M  V30 21 H 0.118292 -4.586708 3.682857 0
M  V30 22 H -1.125625 -3.339873 3.387090 0
M  V30 23 H 0.601727 -2.886875 3.660695 0
M  V30 24 H -1.540654 -3.169625 0.631527 0
M  V30 25 H -1.608595 -4.762070 1.460185 0
M  V30 26 H -0.574412 -4.570658 0.013344 0
M  V30 27 H 1.494086 -3.793797 0.208509 0
M  V30 28 H 2.221020 -3.762170 1.828355 0
M  V30 29 H 2.563414 -1.616558 0.669650 0
M  V30 30 H 1.629629 -1.397929 2.171319 0
M  V30 31 H 1.895766 0.224781 1.109202 0
M  V30 32 H -0.558695 -0.096749 -1.727937 0
M  V30 33 H -0.140207 0.967742 -3.922238 0
M  V30 34 H 1.775491 2.453531 -4.282173 0
M  V30 35 H 3.343417 2.913273 -2.411583 0
M  V30 36 H 2.914135 1.838567 -0.207466 0
M  V30 37 H 1.237731 2.057529 2.402063 0
M  V30 38 H -0.566480 3.124999 3.763135 0
M  V30 39 H -3.484849 0.786080 1.752343 0
M  V30 40 H -1.703905 -0.301353 0.373663 0
M  V30 END ATOM
M  V30 BEGIN BOND
M  V30 1 1 1 2
M  V30 2 1 2 3
M  V30 3 1 2 4
M  V30 4 1 4 5
M  V30 5 1 5 6
M  V30 6 1 6 7
M  V30 7 1 7 8
M  V30 8 2 8 9
M  V30 9 1 9 10
M  V30 10 2 10 11
M  V30 11 1 11 12
M  V30 12 2 12 13
M  V30 13 1 7 14
M  V30 14 2 14 15
M  V30 15 1 15 16
M  V30 16 2 16 17
M  V30 17 1 17 18
M  V30 18 1 17 19
M  V30 19 2 19 20
M  V30 20 1 13 8
M  V30 21 1 20 14
M  V30 22 1 1 21
M  V30 23 1 1 22
M  V30 24 1 1 23
M  V30 25 1 3 24
M  V30 26 1 3 25
M  V30 27 1 3 26
M  V30 28 1 4 27
M  V30 29 1 4 28
M  V30 30 1 5 29
M  V30 31 1 5 30
M  V30 32 1 7 31
M  V30 33 1 9 32
M  V30 34 1 10 33
M  V30 35 1 11 34
M  V30 36 1 12 35
M  V30 37 1 13 36
M  V30 38 1 15 37
M  V30 39 1 16 38
M  V30 40 1 19 39
M  V30 41 1 20 40
M  V30 END BOND
M  V30 END CTAB
M  END
>  <Dataset>  (126) 
OralDrugs

>  <Ligand_Instance>  (126) 
nan

>  <PDB_ID>  (126) 
nan

>  <Standardized_SMILES>  (126) 
CN(C)CCOC(c1ccccc1)c1ccc(Br)cc1

>  <Name>  (126) 
Bromodiphenhydramine

>  <Pocket>  (126) 
nan

>  <ATP_Site>  (126) 
nan

>  <Peripheral>  (126) 
nan

>  <Num_H_Atoms_ProtBoundConf>  (126) 
nan

>  <Num_Resolved_Atoms>  (126) 
nan

>  <Num_Not_Resolved_Atoms>  (126) 
nan

$$$$
CHEMBL811
     RDKit          3D

  0  0  0  0  0  0  0  0  0  0999 V3000
M  V30 BEGIN CTAB
M  V30 COUNTS 38 39 0 0 0
M  V30 BEGIN ATOM
M  V30 1 C -2.368625 -3.013106 1.277583 0
M  V30 2 N -1.033350 -3.470931 1.044444 0
M  V30 3 C -1.102725 -4.665401 0.224906 0
M  V30 4 C -0.137919 -2.496382 0.478362 0
M  V30 5 C 0.186567 -1.375133 1.412288 0
M  V30 6 C 1.114200 -0.352978 0.845652 0
M  V30 7 C 0.670219 0.343515 -0.352236 0
M  V30 8 C -0.661764 0.593275 -0.457423 0
M  V30 9 C -1.245981 1.245179 -1.533367 0
M  V30 10 C -0.388639 1.659260 -2.557022 0
M  V30 11 Br -1.103196 2.565878 -4.081610 0
M  V30 12 C 0.978259 1.402093 -2.447476 0
M  V30 13 C 1.533333 0.748432 -1.360361 0
M  V30 14 C 1.431413 0.635036 1.918990 0
M  V30 15 C 2.714665 1.127466 2.021876 0
M  V30 16 C 2.981616 2.052022 3.035534 0
M  V30 17 C 1.929370 2.397180 3.855177 0
M  V30 18 C 0.658425 1.888661 3.727887 0
M  V30 19 N 0.403860 0.989828 2.740682 0
M  V30 20 H -2.494961 -2.559143 2.300971 0
M  V30 21 H -3.020109 -3.934228 1.333025 0
M  V30 22 H -2.801913 -2.408180 0.471652 0
M  V30 23 H -0.446351 -4.604556 -0.667341 0
M  V30 24 H -2.133988 -4.910361 -0.070970 0
M  V30 25 H -0.722897 -5.514874 0.854372 0
M  V30 26 H -0.556385 -2.155209 -0.493966 0
M  V30 27 H 0.791622 -3.040923 0.211127 0
M  V30 28 H 0.712688 -1.821544 2.287801 0
M  V30 29 H -0.693593 -0.868735 1.823503 0
M  V30 30 H 2.075728 -0.879016 0.579968 0
M  V30 31 H -1.377967 0.301071 0.294649 0
M  V30 32 H -2.307130 1.439678 -1.608383 0
M  V30 33 H 1.666782 1.715351 -3.234073 0
M  V30 34 H 2.593812 0.551069 -1.281077 0
M  V30 35 H 3.473372 0.783251 1.316073 0
M  V30 36 H 3.988138 2.427275 3.101453 0
M  V30 37 H 2.247220 3.127681 4.614671 0
M  V30 38 H -0.079079 2.256365 4.454838 0
M  V30 END ATOM
M  V30 BEGIN BOND
M  V30 1 1 1 2
M  V30 2 1 2 3
M  V30 3 1 2 4
M  V30 4 1 4 5
M  V30 5 1 5 6
M  V30 6 1 6 7
M  V30 7 2 7 8
M  V30 8 1 8 9
M  V30 9 2 9 10
M  V30 10 1 10 11
M  V30 11 1 10 12
M  V30 12 2 12 13
M  V30 13 1 6 14
M  V30 14 2 14 15
M  V30 15 1 15 16
M  V30 16 2 16 17
M  V30 17 1 17 18
M  V30 18 2 18 19
M  V30 19 1 13 7
M  V30 20 1 19 14
M  V30 21 1 1 20
M  V30 22 1 1 21
M  V30 23 1 1 22
M  V30 24 1 3 23
M  V30 25 1 3 24
M  V30 26 1 3 25
M  V30 27 1 4 26
M  V30 28 1 4 27
M  V30 29 1 5 28
M  V30 30 1 5 29
M  V30 31 1 6 30
M  V30 32 1 8 31
M  V30 33 1 9 32
M  V30 34 1 12 33
M  V30 35 1 13 34
M  V30 36 1 15 35
M  V30 37 1 16 36
M  V30 38 1 17 37
M  V30 39 1 18 38
M  V30 END BOND
M  V30 END CTAB
M  END
>  <Dataset>  (127) 
OralDrugs

>  <Ligand_Instance>  (127) 
nan

>  <PDB_ID>  (127) 
nan

>  <Standardized_SMILES>  (127) 
CN(C)CCC(c1ccc(Br)cc1)c1ccccn1

>  <Name>  (127) 
Brompheniramine

>  <Pocket>  (127) 
nan

>  <ATP_Site>  (127) 
nan

>  <Peripheral>  (127) 
nan

>  <Num_H_Atoms_ProtBoundConf>  (127) 
nan

>  <Num_Resolved_Atoms>  (127) 
nan

>  <Num_Not_Resolved_Atoms>  (127) 
nan

$$$$
CHEMBL1201271
     RDKit          3D

  0  0  0  0  0  0  0  0  0  0999 V3000
M  V30 BEGIN CTAB
M  V30 COUNTS 64 67 0 0 0
M  V30 BEGIN ATOM
M  V30 1 C 3.107731 2.292152 5.218291 0
M  V30 2 C 3.946227 2.082375 3.968774 0
M  V30 3 C 4.835311 0.884965 4.215823 0
M  V30 4 C 4.775826 3.309721 3.782887 0
M  V30 5 C 3.019576 1.792019 2.867761 0
M  V30 6 C 2.473564 2.752576 2.038946 0
M  V30 7 C 1.617100 2.338765 1.046191 0
M  V30 8 C 1.248757 1.008963 0.803305 0
M  V30 9 C 0.323881 0.817061 -0.325419 0
M  V30 10 N -1.024732 0.924081 0.094547 0
M  V30 11 C -2.035939 0.812402 -0.887516 0
M  V30 12 C -3.087619 -0.190774 -0.508888 0
M  V30 13 N -2.531297 -1.498641 -0.215636 0
M  V30 14 C -2.140004 -2.108366 -1.464088 0
M  V30 15 C -3.294095 -2.266592 -2.381223 0
M  V30 16 C -4.491289 -2.751930 -1.897055 0
M  V30 17 C -5.565041 -2.894911 -2.784775 0
M  V30 18 C -5.431406 -2.562929 -4.093494 0
M  V30 19 C -4.237572 -2.081361 -4.565778 0
M  V30 20 C -3.146803 -1.921388 -3.731414 0
M  V30 21 C -1.336929 -3.329915 -1.296913 0
M  V30 22 C -0.201311 -3.585014 -2.043577 0
M  V30 23 C 0.474441 -4.745290 -1.812188 0
M  V30 24 C 0.088512 -5.679768 -0.873987 0
M  V30 25 Cl 0.994126 -7.144288 -0.624629 0
M  V30 26 C -1.039405 -5.449427 -0.116896 0
M  V30 27 C -1.716525 -4.283894 -0.350917 0
M  V30 28 C -1.451509 -1.329115 0.703813 0
M  V30 29 C -1.355584 0.090932 1.217396 0
M  V30 30 C 1.813572 0.080283 1.650421 0
M  V30 31 C 2.674392 0.473369 2.651867 0
M  V30 32 H 2.148827 2.810728 4.993686 0
M  V30 33 H 2.851332 1.332622 5.711559 0
M  V30 34 H 3.633478 2.942788 5.965679 0
M  V30 35 H 5.700316 1.222912 4.841839 0
M  V30 36 H 4.288920 0.133442 4.817453 0
M  V30 37 H 5.206610 0.448007 3.242851 0
M  V30 38 H 5.035076 3.570310 2.755940 0
M  V30 39 H 5.758482 3.123876 4.303983 0
M  V30 40 H 4.350156 4.177298 4.344526 0
M  V30 41 H 2.738119 3.768698 2.203098 0
M  V30 42 H 1.233456 3.150426 0.442114 0
M  V30 43 H 0.514877 -0.191437 -0.748718 0
M  V30 44 H 0.495023 1.595158 -1.114077 0
M  V30 45 H -2.574965 1.807589 -0.914822 0
M  V30 46 H -1.666059 0.677666 -1.923645 0
M  V30 47 H -3.789822 0.178377 0.263374 0
M  V30 48 H -3.730392 -0.313564 -1.422536 0
M  V30 49 H -1.446345 -1.359063 -1.931022 0
M  V30 50 H -4.638667 -3.022871 -0.881911 0
M  V30 51 H -6.550587 -3.268649 -2.506081 0
M  V30 52 H -6.239552 -2.654713 -4.834921 0
M  V30 53 H -4.127103 -1.815360 -5.612583 0
M  V30 54 H -2.209890 -1.535067 -4.138878 0
M  V30 55 H 0.093351 -2.836262 -2.783523 0
M  V30 56 H 1.358708 -4.891624 -2.429754 0
M  V30 57 H -1.415871 -6.138381 0.649271 0
M  V30 58 H -2.613953 -4.068856 0.232644 0
M  V30 59 H -1.640541 -1.950327 1.630911 0
M  V30 60 H -0.470608 -1.600558 0.321145 0
M  V30 61 H -0.606854 0.155653 2.036044 0
M  V30 62 H -2.339256 0.445833 1.647763 0
M  V30 63 H 1.520054 -0.934399 1.448041 0
M  V30 64 H 3.038193 -0.381695 3.238637 0
M  V30 END ATOM
M  V30 BEGIN BOND
M  V30 1 1 1 2
M  V30 2 1 2 3
M  V30 3 1 2 4
M  V30 4 1 2 5
M  V30 5 2 5 6
M  V30 6 1 6 7
M  V30 7 2 7 8
M  V30 8 1 8 9
M  V30 9 1 9 10
M  V30 10 1 10 11
M  V30 11 1 11 12
M  V30 12 1 12 13
M  V30 13 1 13 14
M  V30 14 1 14 15
M  V30 15 2 15 16
M  V30 16 1 16 17
M  V30 17 2 17 18
M  V30 18 1 18 19
M  V30 19 2 19 20
M  V30 20 1 14 21
M  V30 21 2 21 22
M  V30 22 1 22 23
M  V30 23 2 23 24
M  V30 24 1 24 25
M  V30 25 1 24 26
M  V30 26 2 26 27
M  V30 27 1 13 28
M  V30 28 1 28 29
M  V30 29 1 8 30
M  V30 30 2 30 31
M  V30 31 1 31 5
M  V30 32 1 29 10
M  V30 33 1 20 15
M  V30 34 1 27 21
M  V30 35 1 1 32
M  V30 36 1 1 33
M  V30 37 1 1 34
M  V30 38 1 3 35
M  V30 39 1 3 36
M  V30 40 1 3 37
M  V30 41 1 4 38
M  V30 42 1 4 39
M  V30 43 1 4 40
M  V30 44 1 6 41
M  V30 45 1 7 42
M  V30 46 1 9 43
M  V30 47 1 9 44
M  V30 48 1 11 45
M  V30 49 1 11 46
M  V30 50 1 12 47
M  V30 51 1 12 48
M  V30 52 1 14 49
M  V30 53 1 16 50
M  V30 54 1 17 51
M  V30 55 1 18 52
M  V30 56 1 19 53
M  V30 57 1 20 54
M  V30 58 1 22 55
M  V30 59 1 23 56
M  V30 60 1 26 57
M  V30 61 1 27 58
M  V30 62 1 28 59
M  V30 63 1 28 60
M  V30 64 1 29 61
M  V30 65 1 29 62
M  V30 66 1 30 63
M  V30 67 1 31 64
M  V30 END BOND
M  V30 END CTAB
M  END
>  <Dataset>  (128) 
OralDrugs

>  <Ligand_Instance>  (128) 
nan

>  <PDB_ID>  (128) 
nan

>  <Standardized_SMILES>  (128) 
CC(C)(C)c1ccc(CN2CCN(C(c3ccccc3)c3ccc(Cl)cc3)CC2)cc1

>  <Name>  (128) 
Buclizine

>  <Pocket>  (128) 
nan

>  <ATP_Site>  (128) 
nan

>  <Peripheral>  (128) 
nan

>  <Num_H_Atoms_ProtBoundConf>  (128) 
nan

>  <Num_Resolved_Atoms>  (128) 
nan

>  <Num_Not_Resolved_Atoms>  (128) 
nan

$$$$
CHEMBL1370
     RDKit          3D

  0  0  0  0  0  0  0  0  0  0999 V3000
M  V30 BEGIN CTAB
M  V30 COUNTS 65 69 0 0 0
M  V30 BEGIN ATOM
M  V30 1 C 3.627736 -1.126244 4.814934 0
M  V30 2 C 2.530591 -0.239034 4.307316 0
M  V30 3 C 2.670427 0.115047 2.853738 0
M  V30 4 C 2.655992 -1.113042 1.998404 0
M  V30 5 O 2.781465 -0.856713 0.642305 0
M  V30 6 C 2.216091 -1.931547 -0.004668 0 CFG=2
M  V30 7 C 1.442425 -1.494962 -1.244510 0
M  V30 8 C 0.361072 -0.740913 -0.576147 0 CFG=1
M  V30 9 C -0.749653 -0.247281 -1.391082 0 CFG=2
M  V30 10 C -0.228201 0.724531 -2.429422 0
M  V30 11 C -1.459545 1.258930 -3.168846 0
M  V30 12 C -2.169482 2.156933 -2.218951 0
M  V30 13 C -2.284161 3.470544 -2.326269 0
M  V30 14 C -3.030661 4.136975 -1.265314 0
M  V30 15 O -3.158360 5.376805 -1.335071 0
M  V30 16 C -3.623096 3.403834 -0.141683 0
M  V30 17 C -3.448450 2.098080 -0.133351 0
M  V30 18 C -2.717099 1.281294 -1.136365 0 CFG=1
M  V30 19 C -3.719954 0.356105 -1.761012 0
M  V30 20 C -1.594470 0.610204 -0.439255 0 CFG=1
M  V30 21 C -2.035348 -0.140970 0.767101 0 CFG=1
M  V30 22 O -3.230203 -0.844286 0.567914 0
M  V30 23 C -0.983253 -0.980639 1.400802 0
M  V30 24 C -0.174536 -1.748364 0.416995 0 CFG=1
M  V30 25 C -1.001679 -2.830702 -0.211265 0
M  V30 26 C 1.086395 -2.325691 0.951713 0 CFG=1
M  V30 27 C 1.111712 -3.820268 0.978590 0
M  V30 28 O 0.901513 -4.809493 0.276398 0
M  V30 29 C 1.501081 -4.613617 2.185391 0
M  V30 30 O 1.401506 -5.959056 1.822421 0
M  V30 31 O 1.465194 -1.776102 2.173020 0
M  V30 32 H 3.334496 -1.399504 5.867262 0
M  V30 33 H 3.661342 -2.100719 4.282438 0
M  V30 34 H 4.601174 -0.599439 4.805440 0
M  V30 35 H 2.469160 0.648939 4.945731 0
M  V30 36 H 1.582320 -0.800774 4.459213 0
M  V30 37 H 1.791658 0.736743 2.583012 0
M  V30 38 H 3.588066 0.730619 2.712781 0
M  V30 39 H 3.542527 -1.714102 2.281217 0
M  V30 40 H 2.913351 -2.752890 -0.211631 0
M  V30 41 H 2.143354 -0.872036 -1.835825 0
M  V30 42 H 1.148831 -2.417864 -1.763125 0
M  V30 43 H 0.802658 0.076837 0.001512 0
M  V30 44 H -1.342739 -1.009818 -1.913653 0
M  V30 45 H 0.455672 0.243218 -3.153946 0
M  V30 46 H 0.258030 1.604982 -1.949044 0
M  V30 47 H -2.035428 0.390329 -3.492655 0
M  V30 48 H -1.136760 1.821735 -4.066472 0
M  V30 49 H -1.826369 3.924421 -3.169427 0
M  V30 50 H -4.163430 3.924263 0.617781 0
M  V30 51 H -3.891731 1.578404 0.700941 0
M  V30 52 H -3.325545 -0.585311 -2.140061 0
M  V30 53 H -4.601792 0.206229 -1.073407 0
M  V30 54 H -4.170445 0.887551 -2.650309 0
M  V30 55 H -0.900046 1.414891 -0.101203 0
M  V30 56 H -2.295922 0.633304 1.549961 0
M  V30 57 H -3.648313 -1.022346 1.447943 0
M  V30 58 H -0.274911 -0.292371 1.927646 0
M  V30 59 H -1.477026 -1.610890 2.167843 0
M  V30 60 H -2.014150 -2.534667 -0.503258 0
M  V30 61 H -1.138252 -3.603924 0.591826 0
M  V30 62 H -0.541061 -3.323527 -1.064731 0
M  V30 63 H 0.835577 -4.368581 3.048488 0
M  V30 64 H 2.525463 -4.423379 2.515327 0
M  V30 65 H 2.304129 -6.388489 1.813344 0
M  V30 END ATOM
M  V30 BEGIN BOND
M  V30 1 1 1 2
M  V30 2 1 2 3
M  V30 3 1 3 4
M  V30 4 1 4 5
M  V30 5 1 5 6
M  V30 6 1 6 7
M  V30 7 1 7 8
M  V30 8 1 8 9
M  V30 9 1 9 10
M  V30 10 1 10 11
M  V30 11 1 11 12
M  V30 12 2 12 13
M  V30 13 1 13 14
M  V30 14 2 14 15
M  V30 15 1 14 16
M  V30 16 2 16 17
M  V30 17 1 17 18
M  V30 18 1 18 19 CFG=3
M  V30 19 1 18 20
M  V30 20 1 20 21
M  V30 21 1 21 22
M  V30 22 1 21 23
M  V30 23 1 23 24
M  V30 24 1 24 25 CFG=3
M  V30 25 1 24 26
M  V30 26 1 26 27 CFG=1
M  V30 27 2 27 28
M  V30 28 1 27 29
M  V30 29 1 29 30
M  V30 30 1 26 31
M  V30 31 1 31 4
M  V30 32 1 26 6
M  V30 33 1 24 8
M  V30 34 1 20 9
M  V30 35 1 18 12
M  V30 36 1 1 32
M  V30 37 1 1 33
M  V30 38 1 1 34
M  V30 39 1 2 35
M  V30 40 1 2 36
M  V30 41 1 3 37
M  V30 42 1 3 38
M  V30 43 1 4 39
M  V30 44 1 6 40 CFG=3
M  V30 45 1 7 41
M  V30 46 1 7 42
M  V30 47 1 8 43 CFG=1
M  V30 48 1 9 44 CFG=3
M  V30 49 1 10 45
M  V30 50 1 10 46
M  V30 51 1 11 47
M  V30 52 1 11 48
M  V30 53 1 13 49
M  V30 54 1 16 50
M  V30 55 1 17 51
M  V30 56 1 19 52
M  V30 57 1 19 53
M  V30 58 1 19 54
M  V30 59 1 20 55 CFG=1
M  V30 60 1 21 56 CFG=1
M  V30 61 1 22 57
M  V30 62 1 23 58
M  V30 63 1 23 59
M  V30 64 1 25 60
M  V30 65 1 25 61
M  V30 66 1 25 62
M  V30 67 1 29 63
M  V30 68 1 29 64
M  V30 69 1 30 65
M  V30 END BOND
M  V30 END CTAB
M  END
>  <Dataset>  (129) 
OralDrugs

>  <Ligand_Instance>  (129) 
nan

>  <PDB_ID>  (129) 
nan

>  <Standardized_SMILES>  (129) 
CCCC1O[C@@H]2C[C@H]3[C@@H]4CCC5=CC(=O)C=C[C@]5(C)[C@H]4[C@@H](O)C[C@]3(C)[C@]2(C(=O)CO)O1

>  <Name>  (129) 
Budesonide

>  <Pocket>  (129) 
nan

>  <ATP_Site>  (129) 
nan

>  <Peripheral>  (129) 
nan

>  <Num_H_Atoms_ProtBoundConf>  (129) 
nan

>  <Num_Resolved_Atoms>  (129) 
nan

>  <Num_Not_Resolved_Atoms>  (129) 
nan

$$$$
CHEMBL1072
     RDKit          3D

  0  0  0  0  0  0  0  0  0  0999 V3000
M  V30 BEGIN CTAB
M  V30 COUNTS 45 46 0 0 0
M  V30 BEGIN ATOM
M  V30 1 C -0.112499 -5.687328 1.335930 0
M  V30 2 C 0.568779 -4.400415 0.914950 0
M  V30 3 C 0.062980 -3.923162 -0.414086 0
M  V30 4 C 0.763474 -2.631024 -0.811436 0
M  V30 5 N 0.560881 -1.565560 0.122254 0
M  V30 6 C 1.106665 -0.254950 -0.013997 0
M  V30 7 C 1.876701 -0.006861 -1.117323 0
M  V30 8 C 2.451181 1.231637 -1.340989 0
M  V30 9 C 3.286265 1.582207 -2.491149 0
M  V30 10 O 3.797155 2.735773 -2.660386 0
M  V30 11 O 3.614672 0.716035 -3.514835 0
M  V30 12 C 2.230064 2.230195 -0.415380 0
M  V30 13 C 1.452839 1.984133 0.700717 0
M  V30 14 S 1.141527 3.206131 1.899377 0
M  V30 15 N 1.704842 2.759026 3.457941 0
M  V30 16 O 1.923365 4.447859 1.512350 0
M  V30 17 O -0.299138 3.610381 1.889208 0
M  V30 18 C 0.878623 0.747925 0.925259 0
M  V30 19 O 0.093296 0.380788 1.985526 0
M  V30 20 C -1.270984 0.467303 2.087705 0
M  V30 21 C -1.736993 -0.002106 3.321266 0
M  V30 22 C -3.076046 -0.010153 3.644863 0
M  V30 23 C -3.991944 0.454045 2.737829 0
M  V30 24 C -3.548174 0.918282 1.521741 0
M  V30 25 C -2.200362 0.934012 1.177691 0
M  V30 26 H -1.202433 -5.615018 1.225134 0
M  V30 27 H 0.315143 -6.529084 0.763743 0
M  V30 28 H 0.116730 -5.827951 2.410781 0
M  V30 29 H 0.402615 -3.610650 1.663794 0
M  V30 30 H 1.659368 -4.583597 0.794974 0
M  V30 31 H -1.022445 -3.826759 -0.430871 0
M  V30 32 H 0.350524 -4.658469 -1.210052 0
M  V30 33 H 1.827873 -2.800494 -0.977554 0
M  V30 34 H 0.341629 -2.390326 -1.829329 0
M  V30 35 H -0.015530 -1.745907 0.951081 0
M  V30 36 H 2.084542 -0.763809 -1.883965 0
M  V30 37 H 4.447992 0.806093 -4.067558 0
M  V30 38 H 2.665007 3.225381 -0.551960 0
M  V30 39 H 2.152995 1.825362 3.482767 0
M  V30 40 H 1.017947 2.937365 4.204951 0
M  V30 41 H -1.100174 -0.395699 4.122073 0
M  V30 42 H -3.463443 -0.366098 4.587940 0
M  V30 43 H -5.047249 0.453237 2.979574 0
M  V30 44 H -4.219574 1.297755 0.762738 0
M  V30 45 H -1.759850 1.271492 0.266858 0
M  V30 END ATOM
M  V30 BEGIN BOND
M  V30 1 1 1 2
M  V30 2 1 2 3
M  V30 3 1 3 4
M  V30 4 1 4 5
M  V30 5 1 5 6
M  V30 6 2 6 7
M  V30 7 1 7 8
M  V30 8 1 8 9
M  V30 9 2 9 10
M  V30 10 1 9 11
M  V30 11 2 8 12
M  V30 12 1 12 13
M  V30 13 1 13 14
M  V30 14 1 14 15
M  V30 15 2 14 16
M  V30 16 2 14 17
M  V30 17 2 13 18
M  V30 18 1 18 19
M  V30 19 1 19 20
M  V30 20 2 20 21
M  V30 21 1 21 22
M  V30 22 2 22 23
M  V30 23 1 23 24
M  V30 24 2 24 25
M  V30 25 1 18 6
M  V30 26 1 25 20
M  V30 27 1 1 26
M  V30 28 1 1 27
M  V30 29 1 1 28
M  V30 30 1 2 29
M  V30 31 1 2 30
M  V30 32 1 3 31
M  V30 33 1 3 32
M  V30 34 1 4 33
M  V30 35 1 4 34
M  V30 36 1 5 35
M  V30 37 1 7 36
M  V30 38 1 11 37
M  V30 39 1 12 38
M  V30 40 1 15 39
M  V30 41 1 15 40
M  V30 42 1 21 41
M  V30 43 1 22 42
M  V30 44 1 23 43
M  V30 45 1 24 44
M  V30 46 1 25 45
M  V30 END BOND
M  V30 END CTAB
M  END
>  <Dataset>  (130) 
OralDrugs

>  <Ligand_Instance>  (130) 
nan

>  <PDB_ID>  (130) 
nan

>  <Standardized_SMILES>  (130) 
CCCCNc1cc(C(=O)O)cc(S(N)(=O)=O)c1Oc1ccccc1

>  <Name>  (130) 
Bumetanide

>  <Pocket>  (130) 
nan

>  <ATP_Site>  (130) 
nan

>  <Peripheral>  (130) 
nan

>  <Num_H_Atoms_ProtBoundConf>  (130) 
nan

>  <Num_Resolved_Atoms>  (130) 
nan

>  <Num_Not_Resolved_Atoms>  (130) 
nan

$$$$
CHEMBL894
     RDKit          3D

  0  0  0  0  0  0  0  0  0  0999 V3000
M  V30 BEGIN CTAB
M  V30 COUNTS 34 34 0 0 0
M  V30 BEGIN ATOM
M  V30 1 C -2.584184 -1.013094 1.964692 0
M  V30 2 C -1.422979 -1.376034 0.985602 0
M  V30 3 N -0.250692 -1.268297 1.788197 0
M  V30 4 C 0.910289 -1.960119 1.333575 0
M  V30 5 C 2.043247 -1.570608 2.291096 0
M  V30 6 C 0.762566 -3.475432 1.527348 0
M  V30 7 C 1.344076 -1.750090 -0.064422 0
M  V30 8 C -1.509542 -0.368400 -0.116105 0
M  V30 9 O -2.518682 -0.720878 -0.820869 0
M  V30 10 C -0.784066 0.807978 -0.530672 0
M  V30 11 C -1.240189 1.392765 -1.690275 0
M  V30 12 C -0.585529 2.545374 -2.121238 0
M  V30 13 C 0.472150 3.096483 -1.438365 0
M  V30 14 C 0.949037 2.532616 -0.275914 0
M  V30 15 Cl 2.281896 3.179221 0.635100 0
M  V30 16 C 0.276988 1.398401 0.114933 0
M  V30 17 H -2.671116 -1.848816 2.669245 0
M  V30 18 H -2.320676 -0.113627 2.527851 0
M  V30 19 H -3.510211 -0.864301 1.384934 0
M  V30 20 H -1.612988 -2.401689 0.679145 0
M  V30 21 H -0.466527 -1.636146 2.741020 0
M  V30 22 H 2.988474 -1.412792 1.730574 0
M  V30 23 H 1.812095 -0.614427 2.808839 0
M  V30 24 H 2.220880 -2.314400 3.070244 0
M  V30 25 H 0.286830 -3.713435 2.504145 0
M  V30 26 H 1.801724 -3.872634 1.583708 0
M  V30 27 H 0.263207 -3.937979 0.665503 0
M  V30 28 H 1.960748 -2.644190 -0.393533 0
M  V30 29 H 2.019512 -0.873947 -0.168384 0
M  V30 30 H 0.497338 -1.755543 -0.781913 0
M  V30 31 H -2.055109 1.067815 -2.321304 0
M  V30 32 H -0.914030 3.044740 -3.038681 0
M  V30 33 H 0.939970 3.992539 -1.822475 0
M  V30 34 H 0.613886 0.905461 1.036642 0
M  V30 END ATOM
M  V30 BEGIN BOND
M  V30 1 1 1 2
M  V30 2 1 2 3
M  V30 3 1 3 4
M  V30 4 1 4 5
M  V30 5 1 4 6
M  V30 6 1 4 7
M  V30 7 1 2 8
M  V30 8 2 8 9
M  V30 9 1 8 10
M  V30 10 2 10 11
M  V30 11 1 11 12
M  V30 12 2 12 13
M  V30 13 1 13 14
M  V30 14 1 14 15
M  V30 15 2 14 16
M  V30 16 1 16 10
M  V30 17 1 1 17
M  V30 18 1 1 18
M  V30 19 1 1 19
M  V30 20 1 2 20
M  V30 21 1 3 21
M  V30 22 1 5 22
M  V30 23 1 5 23
M  V30 24 1 5 24
M  V30 25 1 6 25
M  V30 26 1 6 26
M  V30 27 1 6 27
M  V30 28 1 7 28
M  V30 29 1 7 29
M  V30 30 1 7 30
M  V30 31 1 11 31
M  V30 32 1 12 32
M  V30 33 1 13 33
M  V30 34 1 16 34
M  V30 END BOND
M  V30 END CTAB
M  END
>  <Dataset>  (131) 
OralDrugs

>  <Ligand_Instance>  (131) 
nan

>  <PDB_ID>  (131) 
nan

>  <Standardized_SMILES>  (131) 
CC(NC(C)(C)C)C(=O)c1cccc(Cl)c1

>  <Name>  (131) 
Bupropion

>  <Pocket>  (131) 
nan

>  <ATP_Site>  (131) 
nan

>  <Peripheral>  (131) 
nan

>  <Num_H_Atoms_ProtBoundConf>  (131) 
nan

>  <Num_Resolved_Atoms>  (131) 
nan

>  <Num_Not_Resolved_Atoms>  (131) 
nan

$$$$
CHEMBL49
     RDKit          3D

  0  0  0  0  0  0  0  0  0  0999 V3000
M  V30 BEGIN CTAB
M  V30 COUNTS 59 62 0 0 0
M  V30 BEGIN ATOM
M  V30 1 O 0.321493 2.257276 3.811726 0
M  V30 2 C 1.114213 1.577236 3.074033 0
M  V30 3 C 2.465508 1.344499 3.646257 0
M  V30 4 C 3.465898 1.399992 2.538510 0
M  V30 5 C 3.455261 2.718742 1.811658 0
M  V30 6 C 4.738175 2.655202 1.011535 0
M  V30 7 C 5.697390 2.018754 1.974777 0
M  V30 8 C 4.889802 1.301396 3.026271 0
M  V30 9 C 3.138655 0.313420 1.533534 0
M  V30 10 C 1.871768 0.745599 0.884695 0
M  V30 11 O 1.583210 0.896952 -0.341339 0
M  V30 12 N 0.771335 1.050279 1.771764 0
M  V30 13 C -0.634045 0.893590 1.502119 0
M  V30 14 C -1.235817 -0.400669 1.882697 0
M  V30 15 C -0.712068 -1.630043 1.244455 0
M  V30 16 C -0.860472 -1.680266 -0.236363 0
M  V30 17 N -0.362542 -2.841860 -0.874144 0
M  V30 18 C -0.550166 -2.788429 -2.310951 0
M  V30 19 C -1.738803 -3.583000 -2.793839 0
M  V30 20 N -2.720398 -3.604042 -1.726902 0
M  V30 21 C -4.046946 -3.103840 -1.848934 0
M  V30 22 N -4.911746 -3.163457 -0.798877 0
M  V30 23 C -6.168393 -2.694052 -0.900380 0
M  V30 24 C -6.627357 -2.133273 -2.076758 0
M  V30 25 C -5.740334 -2.076614 -3.140718 0
M  V30 26 N -4.494338 -2.558549 -2.991933 0
M  V30 27 C -2.302407 -4.180744 -0.458715 0
M  V30 28 C -0.782566 -4.101515 -0.353164 0
M  V30 29 H 2.525867 0.333639 4.107413 0
M  V30 30 H 2.735101 2.107257 4.384772 0
M  V30 31 H 3.418886 3.582407 2.507941 0
M  V30 32 H 2.614068 2.720754 1.081486 0
M  V30 33 H 4.559947 2.056790 0.092143 0
M  V30 34 H 5.066722 3.667535 0.691040 0
M  V30 35 H 6.275980 2.841791 2.454303 0
M  V30 36 H 6.372539 1.309396 1.424752 0
M  V30 37 H 5.042307 1.767219 4.006545 0
M  V30 38 H 5.181897 0.242322 3.061686 0
M  V30 39 H 2.944638 -0.660970 2.014040 0
M  V30 40 H 3.949856 0.176960 0.792175 0
M  V30 41 H -0.863586 1.087382 0.431658 0
M  V30 42 H -1.176474 1.688846 2.052678 0
M  V30 43 H -1.294094 -0.527447 2.996533 0
M  V30 44 H -2.325972 -0.331715 1.589239 0
M  V30 45 H -1.194203 -2.535840 1.665019 0
M  V30 46 H 0.362188 -1.724211 1.574197 0
M  V30 47 H -1.976747 -1.656779 -0.440070 0
M  V30 48 H -0.485511 -0.806736 -0.790791 0
M  V30 49 H 0.406826 -3.203816 -2.744532 0
M  V30 50 H -0.655534 -1.708331 -2.608966 0
M  V30 51 H -1.387805 -4.618058 -3.034983 0
M  V30 52 H -2.142222 -3.089008 -3.703456 0
M  V30 53 H -6.711650 -2.823645 0.027758 0
M  V30 54 H -7.652562 -1.795901 -2.024873 0
M  V30 55 H -6.144871 -1.629861 -4.039400 0
M  V30 56 H -2.830434 -3.718347 0.372953 0
M  V30 57 H -2.629231 -5.257388 -0.529157 0
M  V30 58 H -0.519460 -4.180632 0.700443 0
M  V30 59 H -0.421903 -4.961133 -0.964014 0
M  V30 END ATOM
M  V30 BEGIN BOND
M  V30 1 2 1 2
M  V30 2 1 2 3
M  V30 3 1 3 4
M  V30 4 1 4 5
M  V30 5 1 5 6
M  V30 6 1 6 7
M  V30 7 1 7 8
M  V30 8 1 4 9
M  V30 9 1 9 10
M  V30 10 2 10 11
M  V30 11 1 10 12
M  V30 12 1 12 13
M  V30 13 1 13 14
M  V30 14 1 14 15
M  V30 15 1 15 16
M  V30 16 1 16 17
M  V30 17 1 17 18
M  V30 18 1 18 19
M  V30 19 1 19 20
M  V30 20 1 20 21
M  V30 21 2 21 22
M  V30 22 1 22 23
M  V30 23 2 23 24
M  V30 24 1 24 25
M  V30 25 2 25 26
M  V30 26 1 20 27
M  V30 27 1 27 28
M  V30 28 1 12 2
M  V30 29 1 28 17
M  V30 30 1 8 4
M  V30 31 1 26 21
M  V30 32 1 3 29
M  V30 33 1 3 30
M  V30 34 1 5 31
M  V30 35 1 5 32
M  V30 36 1 6 33
M  V30 37 1 6 34
M  V30 38 1 7 35
M  V30 39 1 7 36
M  V30 40 1 8 37
M  V30 41 1 8 38
M  V30 42 1 9 39
M  V30 43 1 9 40
M  V30 44 1 13 41
M  V30 45 1 13 42
M  V30 46 1 14 43
M  V30 47 1 14 44
M  V30 48 1 15 45
M  V30 49 1 15 46
M  V30 50 1 16 47
M  V30 51 1 16 48
M  V30 52 1 18 49
M  V30 53 1 18 50
M  V30 54 1 19 51
M  V30 55 1 19 52
M  V30 56 1 23 53
M  V30 57 1 24 54
M  V30 58 1 25 55
M  V30 59 1 27 56
M  V30 60 1 27 57
M  V30 61 1 28 58
M  V30 62 1 28 59
M  V30 END BOND
M  V30 END CTAB
M  END
>  <Dataset>  (132) 
OralDrugs

>  <Ligand_Instance>  (132) 
nan

>  <PDB_ID>  (132) 
nan

>  <Standardized_SMILES>  (132) 
O=C1CC2(CCCC2)CC(=O)N1CCCCN1CCN(c2ncccn2)CC1

>  <Name>  (132) 
Buspirone

>  <Pocket>  (132) 
nan

>  <ATP_Site>  (132) 
nan

>  <Peripheral>  (132) 
nan

>  <Num_H_Atoms_ProtBoundConf>  (132) 
nan

>  <Num_Resolved_Atoms>  (132) 
nan

>  <Num_Not_Resolved_Atoms>  (132) 
nan

$$$$
CHEMBL820
     RDKit          3D

  0  0  0  0  0  0  0  0  0  0999 V3000
M  V30 BEGIN CTAB
M  V30 COUNTS 28 27 0 0 0
M  V30 BEGIN ATOM
M  V30 1 C 0.915566 -0.344020 5.609367 0
M  V30 2 S 1.093589 -0.892183 3.930985 0
M  V30 3 O 0.405753 -2.201256 3.778422 0
M  V30 4 O 2.588255 -1.082689 3.721950 0
M  V30 5 O 0.608522 0.246943 2.832573 0
M  V30 6 C -0.132095 -0.277610 1.766895 0
M  V30 7 C -0.470329 0.921257 0.890422 0
M  V30 8 C -1.269430 0.550577 -0.312275 0
M  V30 9 C -0.565106 -0.430249 -1.216952 0
M  V30 10 O 0.626858 0.143772 -1.651673 0
M  V30 11 S 1.398491 -0.952876 -2.656257 0
M  V30 12 C 0.804041 -2.586400 -2.264554 0
M  V30 13 O 1.037390 -0.646288 -4.086232 0
M  V30 14 O 2.891310 -0.922804 -2.438394 0
M  V30 15 H -0.125953 -0.245506 5.940495 0
M  V30 16 H 1.495885 0.590959 5.771099 0
M  V30 17 H 1.389287 -1.131960 6.236737 0
M  V30 18 H 0.502298 -1.004977 1.220856 0
M  V30 19 H -1.027040 -0.753514 2.168646 0
M  V30 20 H 0.448566 1.484246 0.660049 0
M  V30 21 H -1.139206 1.549596 1.526143 0
M  V30 22 H -1.473419 1.473809 -0.871441 0
M  V30 23 H -2.226350 0.121867 -0.003423 0
M  V30 24 H -0.427141 -1.413837 -0.741994 0
M  V30 25 H -1.181926 -0.579698 -2.127242 0
M  V30 26 H -0.286682 -2.646589 -2.361263 0
M  V30 27 H 1.239584 -3.339023 -2.973931 0
M  V30 28 H 1.084887 -2.884532 -1.246396 0
M  V30 END ATOM
M  V30 BEGIN BOND
M  V30 1 1 1 2
M  V30 2 2 2 3
M  V30 3 2 2 4
M  V30 4 1 2 5
M  V30 5 1 5 6
M  V30 6 1 6 7
M  V30 7 1 7 8
M  V30 8 1 8 9
M  V30 9 1 9 10
M  V30 10 1 10 11
M  V30 11 1 11 12
M  V30 12 2 11 13
M  V30 13 2 11 14
M  V30 14 1 1 15
M  V30 15 1 1 16
M  V30 16 1 1 17
M  V30 17 1 6 18
M  V30 18 1 6 19
M  V30 19 1 7 20
M  V30 20 1 7 21
M  V30 21 1 8 22
M  V30 22 1 8 23
M  V30 23 1 9 24
M  V30 24 1 9 25
M  V30 25 1 12 26
M  V30 26 1 12 27
M  V30 27 1 12 28
M  V30 END BOND
M  V30 END CTAB
M  END
>  <Dataset>  (133) 
OralDrugs

>  <Ligand_Instance>  (133) 
nan

>  <PDB_ID>  (133) 
nan

>  <Standardized_SMILES>  (133) 
CS(=O)(=O)OCCCCOS(C)(=O)=O

>  <Name>  (133) 
Busulfan

>  <Pocket>  (133) 
nan

>  <ATP_Site>  (133) 
nan

>  <Peripheral>  (133) 
nan

>  <Num_H_Atoms_ProtBoundConf>  (133) 
nan

>  <Num_Resolved_Atoms>  (133) 
nan

>  <Num_Not_Resolved_Atoms>  (133) 
nan

$$$$
CHEMBL449
     RDKit          3D

  0  0  0  0  0  0  0  0  0  0999 V3000
M  V30 BEGIN CTAB
M  V30 COUNTS 31 31 0 0 0
M  V30 BEGIN ATOM
M  V30 1 C -1.101431 -0.391215 3.293416 0
M  V30 2 C 0.086013 -1.217261 2.914308 0
M  V30 3 C 0.893503 -0.785310 1.741773 0
M  V30 4 C 2.040120 -1.750706 1.538712 0
M  V30 5 C 0.218233 -0.368507 0.503833 0
M  V30 6 C -0.689367 -1.345133 -0.129531 0
M  V30 7 C -0.139080 -2.645287 -0.570705 0
M  V30 8 C 1.377976 -0.053336 -0.465711 0
M  V30 9 O 2.644379 -0.136946 -0.278997 0
M  V30 10 N 1.015994 0.406408 -1.786545 0
M  V30 11 C -0.193079 1.193969 -1.904250 0
M  V30 12 O -0.502627 1.591275 -3.055829 0
M  V30 13 N -0.895687 1.420383 -0.650250 0
M  V30 14 C -0.472681 0.922599 0.652746 0
M  V30 15 O -0.901662 1.867274 1.415644 0
M  V30 16 H -1.899153 -0.312923 2.560989 0
M  V30 17 H -0.732115 0.560810 3.733106 0
M  V30 18 H -1.631516 -0.864415 4.197206 0
M  V30 19 H 0.767086 -1.165189 3.829230 0
M  V30 20 H -0.156935 -2.313765 2.891823 0
M  V30 21 H 1.422435 0.165657 2.108417 0
M  V30 22 H 1.976607 -2.528225 2.353158 0
M  V30 23 H 2.097068 -2.219962 0.563077 0
M  V30 24 H 3.029316 -1.280067 1.717673 0
M  V30 25 H -1.558192 -1.505066 0.540238 0
M  V30 26 H -1.140067 -0.864369 -1.038906 0
M  V30 27 H -0.977652 -3.147762 -1.150343 0
M  V30 28 H 0.046694 -3.385362 0.250236 0
M  V30 29 H 0.667666 -2.564435 -1.306377 0
M  V30 30 H 1.609887 0.176888 -2.631819 0
M  V30 31 H -1.747094 2.015666 -0.920856 0
M  V30 END ATOM
M  V30 BEGIN BOND
M  V30 1 1 1 2
M  V30 2 1 2 3
M  V30 3 1 3 4
M  V30 4 1 3 5
M  V30 5 1 5 6
M  V30 6 1 6 7
M  V30 7 1 5 8
M  V30 8 2 8 9
M  V30 9 1 8 10
M  V30 10 1 10 11
M  V30 11 2 11 12
M  V30 12 1 11 13
M  V30 13 1 13 14
M  V30 14 2 14 15
M  V30 15 1 14 5
M  V30 16 1 1 16
M  V30 17 1 1 17
M  V30 18 1 1 18
M  V30 19 1 2 19
M  V30 20 1 2 20
M  V30 21 1 3 21
M  V30 22 1 4 22
M  V30 23 1 4 23
M  V30 24 1 4 24
M  V30 25 1 6 25
M  V30 26 1 6 26
M  V30 27 1 7 27
M  V30 28 1 7 28
M  V30 29 1 7 29
M  V30 30 1 10 30
M  V30 31 1 13 31
M  V30 END BOND
M  V30 END CTAB
M  END
>  <Dataset>  (134) 
OralDrugs

>  <Ligand_Instance>  (134) 
nan

>  <PDB_ID>  (134) 
nan

>  <Standardized_SMILES>  (134) 
CCC(C)C1(CC)C(=O)NC(=O)NC1=O

>  <Name>  (134) 
Butabarbital

>  <Pocket>  (134) 
nan

>  <ATP_Site>  (134) 
nan

>  <Peripheral>  (134) 
nan

>  <Num_H_Atoms_ProtBoundConf>  (134) 
nan

>  <Num_Resolved_Atoms>  (134) 
nan

>  <Num_Not_Resolved_Atoms>  (134) 
nan

$$$$
CHEMBL454
     RDKit          3D

  0  0  0  0  0  0  0  0  0  0999 V3000
M  V30 BEGIN CTAB
M  V30 COUNTS 32 32 0 0 0
M  V30 BEGIN ATOM
M  V30 1 C -1.274823 0.955673 3.272537 0
M  V30 2 C -0.815812 -0.059065 2.512198 0
M  V30 3 C -0.917556 -0.179619 1.030944 0
M  V30 4 C 0.418349 -0.270781 0.368044 0
M  V30 5 C 1.305668 -1.369711 0.707497 0
M  V30 6 C 1.002435 -2.773137 0.526893 0
M  V30 7 C 0.697177 -3.313783 -0.822651 0
M  V30 8 C -0.044155 -3.295948 1.487380 0
M  V30 9 C 0.291720 -0.000191 -1.110242 0
M  V30 10 O 0.641977 -0.653743 -2.150406 0
M  V30 11 N -0.352033 1.243191 -1.473002 0
M  V30 12 C -0.238148 2.418573 -0.641046 0
M  V30 13 O -0.781283 3.503695 -0.927841 0
M  V30 14 N 0.548321 2.278632 0.561724 0
M  V30 15 C 1.142080 0.988023 0.819367 0
M  V30 16 O 2.246919 0.989444 1.415432 0
M  V30 17 H -1.406141 1.404956 4.249236 0
M  V30 18 H -1.783415 1.912813 3.316449 0
M  V30 19 H -0.422614 -0.615958 3.351422 0
M  V30 20 H -1.646574 -0.947367 0.696263 0
M  V30 21 H -1.455587 0.777727 0.735513 0
M  V30 22 H 1.572130 -1.208031 1.800319 0
M  V30 23 H 2.303140 -1.116663 0.222766 0
M  V30 24 H 1.936733 -3.358069 0.836447 0
M  V30 25 H 1.496867 -3.198264 -1.582727 0
M  V30 26 H -0.279996 -3.075241 -1.248827 0
M  V30 27 H 0.659493 -4.439485 -0.687735 0
M  V30 28 H 0.093937 -4.381466 1.696767 0
M  V30 29 H -1.070199 -3.214166 1.091044 0
M  V30 30 H 0.076327 -2.793636 2.480970 0
M  V30 31 H -0.922613 1.341004 -2.347099 0
M  V30 32 H 0.675562 3.106294 1.219738 0
M  V30 END ATOM
M  V30 BEGIN BOND
M  V30 1 2 1 2
M  V30 2 1 2 3
M  V30 3 1 3 4
M  V30 4 1 4 5
M  V30 5 1 5 6
M  V30 6 1 6 7
M  V30 7 1 6 8
M  V30 8 1 4 9
M  V30 9 2 9 10
M  V30 10 1 9 11
M  V30 11 1 11 12
M  V30 12 2 12 13
M  V30 13 1 12 14
M  V30 14 1 14 15
M  V30 15 2 15 16
M  V30 16 1 15 4
M  V30 17 1 1 17
M  V30 18 1 1 18
M  V30 19 1 2 19
M  V30 20 1 3 20
M  V30 21 1 3 21
M  V30 22 1 5 22
M  V30 23 1 5 23
M  V30 24 1 6 24
M  V30 25 1 7 25
M  V30 26 1 7 26
M  V30 27 1 7 27
M  V30 28 1 8 28
M  V30 29 1 8 29
M  V30 30 1 8 30
M  V30 31 1 11 31
M  V30 32 1 14 32
M  V30 END BOND
M  V30 END CTAB
M  END
>  <Dataset>  (135) 
OralDrugs

>  <Ligand_Instance>  (135) 
nan

>  <PDB_ID>  (135) 
nan

>  <Standardized_SMILES>  (135) 
C=CCC1(CC(C)C)C(=O)NC(=O)NC1=O

>  <Name>  (135) 
Butalbital

>  <Pocket>  (135) 
nan

>  <ATP_Site>  (135) 
nan

>  <Peripheral>  (135) 
nan

>  <Num_H_Atoms_ProtBoundConf>  (135) 
nan

>  <Num_Resolved_Atoms>  (135) 
nan

>  <Num_Not_Resolved_Atoms>  (135) 
nan

$$$$
CHEMBL1201087
     RDKit          3D

  0  0  0  0  0  0  0  0  0  0999 V3000
M  V30 BEGIN CTAB
M  V30 COUNTS 70 73 0 0 0
M  V30 BEGIN ATOM
M  V30 1 C -1.039488 0.129535 5.334369 0
M  V30 2 C -1.189854 0.401990 4.019713 0
M  V30 3 C -2.167680 -0.320289 3.141936 0
M  V30 4 N -1.622505 -1.002668 2.046800 0
M  V30 5 C -1.055168 -0.219035 0.993844 0
M  V30 6 C 0.396444 -0.388983 0.745022 0 CFG=2
M  V30 7 C 0.774167 -0.276700 -0.686827 0
M  V30 8 O 0.937013 -1.504454 -1.004400 0
M  V30 9 N 0.933789 0.891764 -1.522354 0
M  V30 10 C 0.814570 2.321261 -1.499426 0
M  V30 11 C -0.478557 2.827970 -2.002167 0
M  V30 12 C -1.723246 2.427917 -1.305973 0
M  V30 13 N -2.921465 2.980809 -1.868242 0
M  V30 14 C -3.085474 4.387510 -1.740544 0
M  V30 15 C -3.281147 2.525890 -3.161298 0
M  V30 16 C 1.367255 0.352895 -2.802545 0
M  V30 17 O 1.574432 -0.864104 -3.175875 0
M  V30 18 N 1.666355 1.085538 -3.959939 0
M  V30 19 C 2.087104 0.379157 -5.159325 0
M  V30 20 C 3.343569 -0.413184 -4.927796 0
M  V30 21 C 1.103998 -1.459507 1.492381 0
M  V30 22 C 0.362042 -2.151869 2.570869 0 CFG=2
M  V30 23 C 0.987209 -3.482417 2.895725 0
M  V30 24 C 2.372715 -3.649536 2.837340 0
M  V30 25 C 2.876117 -4.904825 3.146368 0
M  V30 26 C 2.057811 -5.965222 3.501369 0
M  V30 27 C 0.688582 -5.813371 3.562873 0
M  V30 28 N -0.417325 -6.533649 3.845807 0
M  V30 29 C -1.532617 -5.755564 3.715256 0
M  V30 30 C -1.152210 -4.462861 3.329107 0
M  V30 31 C 0.220800 -4.554847 3.250266 0
M  V30 32 C -1.888652 -3.216121 3.043768 0
M  V30 33 C -1.070773 -2.288697 2.206374 0 CFG=1
M  V30 34 H -1.784693 -0.664123 5.413904 0
M  V30 35 H -0.287556 0.750061 5.811435 0
M  V30 36 H -0.623263 1.167167 3.460283 0
M  V30 37 H -2.823844 0.507575 2.729052 0
M  V30 38 H -2.807229 -0.882266 3.814744 0
M  V30 39 H -1.572946 -0.590751 0.052796 0
M  V30 40 H -1.357864 0.849011 1.073759 0
M  V30 41 H 0.859096 0.582270 1.179685 0
M  V30 42 H 1.028541 2.705025 -0.446496 0
M  V30 43 H 1.645042 2.761473 -2.084584 0
M  V30 44 H -0.477297 3.954430 -2.040579 0
M  V30 45 H -0.592849 2.535362 -3.081001 0
M  V30 46 H -1.868558 1.323244 -1.269125 0
M  V30 47 H -1.714330 2.771824 -0.229817 0
M  V30 48 H -4.040846 4.629305 -1.212733 0
M  V30 49 H -2.269881 4.904615 -1.178103 0
M  V30 50 H -3.211910 4.816217 -2.758812 0
M  V30 51 H -3.954183 1.636407 -3.136335 0
M  V30 52 H -2.443960 2.274483 -3.826046 0
M  V30 53 H -3.852021 3.328890 -3.714512 0
M  V30 54 H 1.571041 2.119753 -3.902531 0
M  V30 55 H 1.304451 -0.276909 -5.553443 0
M  V30 56 H 2.296348 1.136866 -5.955216 0
M  V30 57 H 3.778474 -0.203187 -3.917548 0
M  V30 58 H 4.081574 -0.188512 -5.696988 0
M  V30 59 H 3.094393 -1.497710 -4.968132 0
M  V30 60 H 1.382329 -2.246617 0.727964 0
M  V30 61 H 2.105123 -1.136688 1.890705 0
M  V30 62 H 0.425139 -1.590282 3.541853 0
M  V30 63 H 3.021015 -2.827479 2.561132 0
M  V30 64 H 3.966356 -5.060769 3.106580 0
M  V30 65 H 2.434396 -6.957578 3.747057 0
M  V30 66 H -0.336870 -7.536170 4.116674 0
M  V30 67 H -2.538626 -6.100342 3.887250 0
M  V30 68 H -2.237978 -2.819002 4.005736 0
M  V30 69 H -2.779558 -3.528321 2.430472 0
M  V30 70 H -1.073094 -2.765926 1.176954 0
M  V30 END ATOM
M  V30 BEGIN BOND
M  V30 1 2 1 2
M  V30 2 1 2 3
M  V30 3 1 3 4
M  V30 4 1 4 5
M  V30 5 1 5 6
M  V30 6 1 6 7
M  V30 7 2 7 8
M  V30 8 1 7 9
M  V30 9 1 9 10
M  V30 10 1 10 11
M  V30 11 1 11 12
M  V30 12 1 12 13
M  V30 13 1 13 14
M  V30 14 1 13 15
M  V30 15 1 9 16
M  V30 16 2 16 17
M  V30 17 1 16 18
M  V30 18 1 18 19
M  V30 19 1 19 20
M  V30 20 1 6 21
M  V30 21 1 21 22
M  V30 22 1 22 23
M  V30 23 2 23 24
M  V30 24 1 24 25
M  V30 25 2 25 26
M  V30 26 1 26 27
M  V30 27 1 27 28
M  V30 28 1 28 29
M  V30 29 2 29 30
M  V30 30 1 30 31
M  V30 31 1 30 32
M  V30 32 1 32 33
M  V30 33 1 33 4
M  V30 34 1 33 22
M  V30 35 1 31 23
M  V30 36 2 31 27
M  V30 37 1 1 34
M  V30 38 1 1 35
M  V30 39 1 2 36
M  V30 40 1 3 37
M  V30 41 1 3 38
M  V30 42 1 5 39
M  V30 43 1 5 40
M  V30 44 1 6 41 CFG=1
M  V30 45 1 10 42
M  V30 46 1 10 43
M  V30 47 1 11 44
M  V30 48 1 11 45
M  V30 49 1 12 46
M  V30 50 1 12 47
M  V30 51 1 14 48
M  V30 52 1 14 49
M  V30 53 1 14 50
M  V30 54 1 15 51
M  V30 55 1 15 52
M  V30 56 1 15 53
M  V30 57 1 18 54
M  V30 58 1 19 55
M  V30 59 1 19 56
M  V30 60 1 20 57
M  V30 61 1 20 58
M  V30 62 1 20 59
M  V30 63 1 21 60
M  V30 64 1 21 61
M  V30 65 1 22 62 CFG=1
M  V30 66 1 24 63
M  V30 67 1 25 64
M  V30 68 1 26 65
M  V30 69 1 28 66
M  V30 70 1 29 67
M  V30 71 1 32 68
M  V30 72 1 32 69
M  V30 73 1 33 70 CFG=3
M  V30 END BOND
M  V30 END CTAB
M  END
>  <Dataset>  (136) 
OralDrugs

>  <Ligand_Instance>  (136) 
nan

>  <PDB_ID>  (136) 
nan

>  <Standardized_SMILES>  (136) 
C=CCN1C[C@H](C(=O)N(CCCN(C)C)C(=O)NCC)C[C@@H]2c3cccc4[nH]cc(c34)C[C@H]21

>  <Name>  (136) 
Cabergoline

>  <Pocket>  (136) 
nan

>  <ATP_Site>  (136) 
nan

>  <Peripheral>  (136) 
nan

>  <Num_H_Atoms_ProtBoundConf>  (136) 
nan

>  <Num_Resolved_Atoms>  (136) 
nan

>  <Num_Not_Resolved_Atoms>  (136) 
nan

$$$$
CHEMBL2403238
     RDKit          3D

  0  0  0  0  0  0  0  0  0  0999 V3000
M  V30 BEGIN CTAB
M  V30 COUNTS 46 49 0 0 0
M  V30 BEGIN ATOM
M  V30 1 C -0.736000 -5.175708 5.351741 0
M  V30 2 C -1.298613 -3.776772 5.210949 0 CFG=1
M  V30 3 C -0.632100 -2.924317 6.280153 0
M  V30 4 O -0.290642 -1.729372 5.628763 0
M  V30 5 C 0.218104 -2.212284 4.422846 0 CFG=2
M  V30 6 C 0.626682 -1.160414 3.480080 0
M  V30 7 N 0.313122 -1.354859 2.096019 0
M  V30 8 C 0.855032 -0.495815 1.214555 0
M  V30 9 C 0.607712 -0.595573 -0.149107 0
M  V30 10 C 1.257485 0.390458 -0.991188 0
M  V30 11 O 1.992269 1.275668 -0.484627 0
M  V30 12 N 1.221776 0.560999 -2.373360 0
M  V30 13 C 1.707545 1.364969 -3.421856 0
M  V30 14 C 1.328852 2.797202 -3.404092 0
M  V30 15 C 0.220006 3.028574 -4.234390 0
M  V30 16 C -0.361256 4.289961 -4.381011 0
M  V30 17 C 0.137030 5.381342 -3.705265 0
M  V30 18 F -0.338552 6.625327 -3.771562 0
M  V30 19 C 1.218688 5.139738 -2.899966 0
M  V30 20 C 1.801346 3.905665 -2.745903 0
M  V30 21 F 2.880241 3.652187 -1.978231 0
M  V30 22 C -0.224663 -1.630323 -0.512847 0
M  V30 23 O -0.482108 -1.770314 -1.710632 0
M  V30 24 C -0.790265 -2.521696 0.373349 0
M  V30 25 O -1.616426 -3.529873 -0.102796 0
M  V30 26 C -0.495805 -2.355836 1.709096 0
M  V30 27 C -1.093069 -3.312138 2.632662 0
M  V30 28 O -1.853323 -4.257962 2.302962 0
M  V30 29 N -0.776170 -3.141353 4.008240 0
M  V30 30 H 0.375412 -5.070039 5.284484 0
M  V30 31 H -0.963011 -5.492898 6.383672 0
M  V30 32 H -1.138269 -5.894114 4.636408 0
M  V30 33 H -2.380153 -3.708908 5.323102 0
M  V30 34 H 0.329926 -3.356582 6.639228 0
M  V30 35 H -1.334483 -2.684237 7.088110 0
M  V30 36 H 1.117765 -2.824545 4.728083 0
M  V30 37 H 0.171887 -0.195947 3.820851 0
M  V30 38 H 1.730821 -0.978077 3.564404 0
M  V30 39 H 1.508946 0.300309 1.604230 0
M  V30 40 H 0.599440 -0.175703 -2.838623 0
M  V30 41 H 1.626992 0.947092 -4.443181 0
M  V30 42 H 2.848009 1.392315 -3.269463 0
M  V30 43 H -0.294890 2.264890 -4.840150 0
M  V30 44 H -1.215836 4.463061 -5.022295 0
M  V30 45 H 1.703830 5.916260 -2.314705 0
M  V30 46 H -1.194984 -4.416824 -0.300835 0
M  V30 END ATOM
M  V30 BEGIN BOND
M  V30 1 1 1 2
M  V30 2 1 2 3
M  V30 3 1 3 4
M  V30 4 1 4 5
M  V30 5 1 5 6
M  V30 6 1 6 7
M  V30 7 1 7 8
M  V30 8 2 8 9
M  V30 9 1 9 10
M  V30 10 2 10 11
M  V30 11 1 10 12
M  V30 12 1 12 13
M  V30 13 1 13 14
M  V30 14 2 14 15
M  V30 15 1 15 16
M  V30 16 2 16 17
M  V30 17 1 17 18
M  V30 18 1 17 19
M  V30 19 2 19 20
M  V30 20 1 20 21
M  V30 21 1 9 22
M  V30 22 2 22 23
M  V30 23 1 22 24
M  V30 24 1 24 25
M  V30 25 2 24 26
M  V30 26 1 26 27
M  V30 27 2 27 28
M  V30 28 1 27 29
M  V30 29 1 29 2
M  V30 30 1 29 5
M  V30 31 1 26 7
M  V30 32 1 20 14
M  V30 33 1 1 30
M  V30 34 1 1 31
M  V30 35 1 1 32
M  V30 36 1 2 33 CFG=3
M  V30 37 1 3 34
M  V30 38 1 3 35
M  V30 39 1 5 36 CFG=1
M  V30 40 1 6 37
M  V30 41 1 6 38
M  V30 42 1 8 39
M  V30 43 1 12 40
M  V30 44 1 13 41
M  V30 45 1 13 42
M  V30 46 1 15 43
M  V30 47 1 16 44
M  V30 48 1 19 45
M  V30 49 1 25 46
M  V30 END BOND
M  V30 END CTAB
M  END
>  <Dataset>  (137) 
OralDrugs

>  <Ligand_Instance>  (137) 
nan

>  <PDB_ID>  (137) 
nan

>  <Standardized_SMILES>  (137) 
C[C@H]1CO[C@@H]2Cn3cc(C(=O)NCc4ccc(F)cc4F)c(=O)c(O)c3C(=O)N12

>  <Name>  (137) 
Cabotegravir

>  <Pocket>  (137) 
nan

>  <ATP_Site>  (137) 
nan

>  <Peripheral>  (137) 
nan

>  <Num_H_Atoms_ProtBoundConf>  (137) 
nan

>  <Num_Resolved_Atoms>  (137) 
nan

>  <Num_Not_Resolved_Atoms>  (137) 
nan

$$$$
CHEMBL2105717
     RDKit          3D

  0  0  0  0  0  0  0  0  0  0999 V3000
M  V30 BEGIN CTAB
M  V30 COUNTS 61 65 0 0 0
M  V30 BEGIN ATOM
M  V30 1 C 5.551937 -3.771430 1.765213 0
M  V30 2 O 4.943657 -2.538010 1.504408 0
M  V30 3 C 4.320962 -2.177156 0.337224 0
M  V30 4 C 4.237674 -3.055141 -0.751037 0
M  V30 5 C 3.604851 -2.661283 -1.908895 0
M  V30 6 N 3.479101 -3.428424 -3.020442 0
M  V30 7 C 2.852133 -2.956502 -4.114818 0
M  V30 8 C 2.307810 -1.662482 -4.146893 0
M  V30 9 C 2.418911 -0.841718 -3.014908 0
M  V30 10 O 1.812012 0.337829 -3.321284 0
M  V30 11 C 0.705356 0.802044 -2.653804 0
M  V30 12 C 0.379015 1.728388 -1.683687 0
M  V30 13 C -0.896428 1.940142 -1.225138 0
M  V30 14 C -1.896540 1.190130 -1.761768 0
M  V30 15 N -3.205640 1.466170 -1.212585 0
M  V30 16 C -3.285014 0.552220 -0.106985 0
M  V30 17 O -2.186262 -0.056184 -0.132233 0
M  V30 18 C -4.445698 0.439072 0.789931 0
M  V30 19 C -4.227021 -0.177658 2.114029 0
M  V30 20 O -5.230916 -0.295829 2.897022 0
M  V30 21 N -3.010311 -0.661528 2.625993 0
M  V30 22 C -2.552941 -1.274415 3.816237 0
M  V30 23 C -2.629809 -2.660910 3.738238 0
M  V30 24 C -2.226246 -3.450641 4.804542 0
M  V30 25 C -1.754810 -2.795660 5.922642 0
M  V30 26 F -1.320693 -3.441159 7.052637 0
M  V30 27 C -1.672730 -1.419571 6.015702 0
M  V30 28 C -2.078326 -0.641827 4.944348 0
M  V30 29 C -5.578461 1.395503 0.698909 0
M  V30 30 C -5.795455 0.037839 0.156639 0
M  V30 31 C -1.662563 0.238180 -2.740144 0
M  V30 32 C -0.342234 0.055202 -3.179118 0
M  V30 33 C 3.071204 -1.406234 -1.956261 0
M  V30 34 C 3.146204 -0.534724 -0.896929 0
M  V30 35 C 3.770195 -0.891614 0.277177 0
M  V30 36 O 3.874690 -0.050791 1.383200 0
M  V30 37 C 3.283546 1.242497 1.245064 0
M  V30 38 H 6.409217 -3.627009 2.464167 0
M  V30 39 H 5.912338 -4.301943 0.863094 0
M  V30 40 H 4.878276 -4.490566 2.312587 0
M  V30 41 H 4.653553 -4.036595 -0.714533 0
M  V30 42 H 2.840975 -3.692133 -4.905528 0
M  V30 43 H 1.858593 -1.515972 -5.130893 0
M  V30 44 H 1.303850 2.230405 -1.390046 0
M  V30 45 H -0.924053 2.701029 -0.474820 0
M  V30 46 H -4.011587 2.123411 -1.435452 0
M  V30 47 H -2.151172 -0.606802 2.075822 0
M  V30 48 H -2.991268 -3.233512 2.886681 0
M  V30 49 H -2.258538 -4.546234 4.811493 0
M  V30 50 H -1.310463 -0.873196 6.871757 0
M  V30 51 H -2.063399 0.441890 4.892628 0
M  V30 52 H -6.162825 1.595735 1.644327 0
M  V30 53 H -5.623715 2.229826 -0.001269 0
M  V30 54 H -6.389107 -0.740776 0.659386 0
M  V30 55 H -5.730009 -0.066964 -0.964645 0
M  V30 56 H -2.576297 -0.251455 -3.041484 0
M  V30 57 H -0.406870 -0.736440 -3.941774 0
M  V30 58 H 2.750995 0.463026 -0.898483 0
M  V30 59 H 3.279892 1.785920 2.202293 0
M  V30 60 H 3.725910 1.823579 0.416195 0
M  V30 61 H 2.196729 1.089833 0.971701 0
M  V30 END ATOM
M  V30 BEGIN BOND
M  V30 1 1 1 2
M  V30 2 1 2 3
M  V30 3 2 3 4
M  V30 4 1 4 5
M  V30 5 2 5 6
M  V30 6 1 6 7
M  V30 7 2 7 8
M  V30 8 1 8 9
M  V30 9 1 9 10
M  V30 10 1 10 11
M  V30 11 2 11 12
M  V30 12 1 12 13
M  V30 13 2 13 14
M  V30 14 1 14 15
M  V30 15 1 15 16
M  V30 16 2 16 17
M  V30 17 1 16 18
M  V30 18 1 18 19
M  V30 19 2 19 20
M  V30 20 1 19 21
M  V30 21 1 21 22
M  V30 22 2 22 23
M  V30 23 1 23 24
M  V30 24 2 24 25
M  V30 25 1 25 26
M  V30 26 1 25 27
M  V30 27 2 27 28
M  V30 28 1 18 29
M  V30 29 1 29 30
M  V30 30 1 14 31
M  V30 31 2 31 32
M  V30 32 2 9 33
M  V30 33 1 33 34
M  V30 34 2 34 35
M  V30 35 1 35 36
M  V30 36 1 36 37
M  V30 37 1 35 3
M  V30 38 1 33 5
M  V30 39 1 32 11
M  V30 40 1 30 18
M  V30 41 1 28 22
M  V30 42 1 1 38
M  V30 43 1 1 39
M  V30 44 1 1 40
M  V30 45 1 4 41
M  V30 46 1 7 42
M  V30 47 1 8 43
M  V30 48 1 12 44
M  V30 49 1 13 45
M  V30 50 1 15 46
M  V30 51 1 21 47
M  V30 52 1 23 48
M  V30 53 1 24 49
M  V30 54 1 27 50
M  V30 55 1 28 51
M  V30 56 1 29 52
M  V30 57 1 29 53
M  V30 58 1 30 54
M  V30 59 1 30 55
M  V30 60 1 31 56
M  V30 61 1 32 57
M  V30 62 1 34 58
M  V30 63 1 37 59
M  V30 64 1 37 60
M  V30 65 1 37 61
M  V30 END BOND
M  V30 END CTAB
M  END
>  <Dataset>  (138) 
OralDrugs

>  <Ligand_Instance>  (138) 
nan

>  <PDB_ID>  (138) 
nan

>  <Standardized_SMILES>  (138) 
COc1cc2nccc(Oc3ccc(NC(=O)C4(C(=O)Nc5ccc(F)cc5)CC4)cc3)c2cc1OC

>  <Name>  (138) 
Cabozantinib

>  <Pocket>  (138) 
nan

>  <ATP_Site>  (138) 
nan

>  <Peripheral>  (138) 
nan

>  <Num_H_Atoms_ProtBoundConf>  (138) 
nan

>  <Num_Resolved_Atoms>  (138) 
nan

>  <Num_Not_Resolved_Atoms>  (138) 
nan

$$$$
CHEMBL113
     RDKit          3D

  0  0  0  0  0  0  0  0  0  0999 V3000
M  V30 BEGIN CTAB
M  V30 COUNTS 24 25 0 0 0
M  V30 BEGIN ATOM
M  V30 1 C -0.645070 2.030684 2.696771 0
M  V30 2 N 0.011760 0.965332 1.936336 0
M  V30 3 C -0.342788 0.683979 0.653401 0
M  V30 4 O -1.256044 1.352609 0.103899 0
M  V30 5 C 0.352305 -0.348755 0.035851 0
M  V30 6 C 1.347394 -1.059146 0.670494 0
M  V30 7 N 1.789014 -1.967242 -0.220079 0
M  V30 8 C 1.073104 -1.807934 -1.372249 0
M  V30 9 N 0.169859 -0.794931 -1.220291 0
M  V30 10 C -0.740219 -0.384531 -2.273856 0
M  V30 11 N 1.654115 -0.728089 1.953698 0
M  V30 12 C 2.716339 -1.485496 2.632953 0
M  V30 13 C 0.997153 0.264881 2.570765 0
M  V30 14 O 1.306684 0.547507 3.763979 0
M  V30 15 H -1.242127 2.648318 2.014023 0
M  V30 16 H -1.393549 1.526119 3.374911 0
M  V30 17 H 0.053832 2.643694 3.267723 0
M  V30 18 H 1.250582 -2.433852 -2.246202 0
M  V30 19 H -1.664866 -1.019990 -2.277039 0
M  V30 20 H -1.077903 0.656533 -2.121371 0
M  V30 21 H -0.253899 -0.558752 -3.244988 0
M  V30 22 H 3.326463 -2.020672 1.899601 0
M  V30 23 H 2.157701 -2.269884 3.214141 0
M  V30 24 H 3.262300 -0.848636 3.341542 0
M  V30 END ATOM
M  V30 BEGIN BOND
M  V30 1 1 1 2
M  V30 2 1 2 3
M  V30 3 2 3 4
M  V30 4 1 3 5
M  V30 5 2 5 6
M  V30 6 1 6 7
M  V30 7 2 7 8
M  V30 8 1 8 9
M  V30 9 1 9 10
M  V30 10 1 6 11
M  V30 11 1 11 12
M  V30 12 1 11 13
M  V30 13 2 13 14
M  V30 14 1 13 2
M  V30 15 1 9 5
M  V30 16 1 1 15
M  V30 17 1 1 16
M  V30 18 1 1 17
M  V30 19 1 8 18
M  V30 20 1 10 19
M  V30 21 1 10 20
M  V30 22 1 10 21
M  V30 23 1 12 22
M  V30 24 1 12 23
M  V30 25 1 12 24
M  V30 END BOND
M  V30 END CTAB
M  END
>  <Dataset>  (139) 
OralDrugs

>  <Ligand_Instance>  (139) 
nan

>  <PDB_ID>  (139) 
nan

>  <Standardized_SMILES>  (139) 
Cn1c(=O)c2c(ncn2C)n(C)c1=O

>  <Name>  (139) 
Caffeine

>  <Pocket>  (139) 
nan

>  <ATP_Site>  (139) 
nan

>  <Peripheral>  (139) 
nan

>  <Num_H_Atoms_ProtBoundConf>  (139) 
nan

>  <Num_Resolved_Atoms>  (139) 
nan

>  <Num_Not_Resolved_Atoms>  (139) 
nan

$$$$
CHEMBL3544909
     RDKit          3D

  0  0  0  0  0  0  0  0  0  0999 V3000
M  V30 BEGIN CTAB
M  V30 COUNTS 73 75 0 0 0
M  V30 BEGIN ATOM
M  V30 1 C 2.467331 -0.077976 4.273053 0
M  V30 2 C 3.553984 0.640190 4.079298 0
M  V30 3 C 4.968102 0.340101 4.529894 0
M  V30 4 C 5.812951 1.359302 3.787295 0
M  V30 5 C 5.422195 2.785428 4.095154 0 CFG=2
M  V30 6 O 5.668499 3.010072 5.469143 0
M  V30 7 C 4.025613 3.146180 3.725159 0
M  V30 8 C 3.289752 1.888434 3.328072 0
M  V30 9 C 2.425908 1.829870 2.335675 0
M  V30 10 C 1.699070 0.649052 1.894968 0
M  V30 11 C 0.842570 0.778444 0.861878 0
M  V30 12 C 0.732308 2.148310 0.270957 0
M  V30 13 C -0.097070 2.210182 -0.944655 0
M  V30 14 C -1.113497 1.091599 -1.113728 0
M  V30 15 C -0.365297 -0.197130 -1.101099 0 CFG=2
M  V30 16 C 0.922461 -0.149402 -1.884674 0
M  V30 17 C -1.131489 -1.447036 -1.243347 0 CFG=1
M  V30 18 C -1.391588 -1.952939 -2.618462 0 CFG=2
M  V30 19 C -2.167895 -1.062899 -3.534708 0
M  V30 20 C -1.875387 -3.338722 -2.703020 0
M  V30 21 C -3.122509 -3.748423 -2.052676 0
M  V30 22 C -4.392170 -3.084782 -2.458035 0
M  V30 23 C -5.592859 -3.649820 -1.675592 0
M  V30 24 C -5.412524 -3.438713 -0.195917 0
M  V30 25 C -5.815884 -5.097983 -1.981959 0
M  V30 26 O -6.756107 -2.975370 -2.041234 0
M  V30 27 C -0.187508 -2.472283 -0.594215 0
M  V30 28 C 0.796603 -1.655865 0.255594 0
M  V30 29 C 0.061699 -0.367129 0.353446 0 CFG=1
M  V30 30 H 1.775433 -0.843835 4.572332 0
M  V30 31 H 2.066668 -0.980587 4.709149 0
M  V30 32 H 5.003060 0.525363 5.610006 0
M  V30 33 H 5.281784 -0.654639 4.199872 0
M  V30 34 H 5.641027 1.157572 2.710531 0
M  V30 35 H 6.894011 1.213051 3.975155 0
M  V30 36 H 6.124060 3.453153 3.547876 0
M  V30 37 H 6.648890 2.895473 5.579053 0
M  V30 38 H 4.022786 3.860361 2.885910 0
M  V30 39 H 3.537675 3.586756 4.639323 0
M  V30 40 H 2.298161 2.787017 1.856880 0
M  V30 41 H 1.660518 -0.388745 2.181513 0
M  V30 42 H 1.794572 2.390377 -0.034783 0
M  V30 43 H 0.445323 2.884894 1.052366 0
M  V30 44 H -0.677459 3.182904 -0.900210 0
M  V30 45 H 0.549630 2.276445 -1.854062 0
M  V30 46 H -1.635318 1.342113 -2.054528 0
M  V30 47 H -1.763199 1.124877 -0.218651 0
M  V30 48 H 1.267603 -1.181257 -2.128950 0
M  V30 49 H 0.876408 0.494155 -2.787281 0
M  V30 50 H 1.754478 0.278924 -1.273778 0
M  V30 51 H -2.053166 -1.326529 -0.625258 0
M  V30 52 H -0.349633 -1.962060 -3.098176 0
M  V30 53 H -2.899399 -0.392489 -3.045904 0
M  V30 54 H -2.798682 -1.720906 -4.182342 0
M  V30 55 H -1.545523 -0.505051 -4.278239 0
M  V30 56 H -1.956081 -3.656441 -3.787782 0
M  V30 57 H -1.062804 -4.034239 -2.331895 0
M  V30 58 H -3.108267 -3.755432 -0.944012 0
M  V30 59 H -3.283689 -4.843357 -2.297554 0
M  V30 60 H -4.449145 -1.994906 -2.272287 0
M  V30 61 H -4.666287 -3.214665 -3.528084 0
M  V30 62 H -5.066918 -4.406742 0.258888 0
M  V30 63 H -4.637359 -2.668860 0.027032 0
M  V30 64 H -6.355797 -3.210878 0.347698 0
M  V30 65 H -5.136853 -5.768359 -1.376106 0
M  V30 66 H -6.841551 -5.370452 -1.647674 0
M  V30 67 H -5.780131 -5.339241 -3.048552 0
M  V30 68 H -7.173352 -2.469831 -1.306201 0
M  V30 69 H 0.403723 -3.012442 -1.363769 0
M  V30 70 H -0.702800 -3.126472 0.106446 0
M  V30 71 H 1.788408 -1.618656 -0.208651 0
M  V30 72 H 0.949892 -2.116123 1.257363 0
M  V30 73 H -0.867227 -0.556558 0.924197 0
M  V30 END ATOM
M  V30 BEGIN BOND
M  V30 1 2 1 2
M  V30 2 1 2 3
M  V30 3 1 3 4
M  V30 4 1 4 5
M  V30 5 1 5 6
M  V30 6 1 5 7
M  V30 7 1 7 8
M  V30 8 2 8 9
M  V30 9 1 9 10
M  V30 10 2 10 11
M  V30 11 1 11 12
M  V30 12 1 12 13
M  V30 13 1 13 14
M  V30 14 1 14 15
M  V30 15 1 15 16 CFG=3
M  V30 16 1 15 17
M  V30 17 1 17 18
M  V30 18 1 18 19
M  V30 19 1 18 20
M  V30 20 1 20 21
M  V30 21 1 21 22
M  V30 22 1 22 23
M  V30 23 1 23 24
M  V30 24 1 23 25
M  V30 25 1 23 26
M  V30 26 1 17 27
M  V30 27 1 27 28
M  V30 28 1 28 29
M  V30 29 1 8 2
M  V30 30 1 29 11
M  V30 31 1 29 15
M  V30 32 1 1 30
M  V30 33 1 1 31
M  V30 34 1 3 32
M  V30 35 1 3 33
M  V30 36 1 4 34
M  V30 37 1 4 35
M  V30 38 1 5 36 CFG=3
M  V30 39 1 6 37
M  V30 40 1 7 38
M  V30 41 1 7 39
M  V30 42 1 9 40
M  V30 43 1 10 41
M  V30 44 1 12 42
M  V30 45 1 12 43
M  V30 46 1 13 44
M  V30 47 1 13 45
M  V30 48 1 14 46
M  V30 49 1 14 47
M  V30 50 1 16 48
M  V30 51 1 16 49
M  V30 52 1 16 50
M  V30 53 1 17 51 CFG=1
M  V30 54 1 18 52 CFG=3
M  V30 55 1 19 53
M  V30 56 1 19 54
M  V30 57 1 19 55
M  V30 58 1 20 56
M  V30 59 1 20 57
M  V30 60 1 21 58
M  V30 61 1 21 59
M  V30 62 1 22 60
M  V30 63 1 22 61
M  V30 64 1 24 62
M  V30 65 1 24 63
M  V30 66 1 24 64
M  V30 67 1 25 65
M  V30 68 1 25 66
M  V30 69 1 25 67
M  V30 70 1 26 68
M  V30 71 1 27 69
M  V30 72 1 27 70
M  V30 73 1 28 71
M  V30 74 1 28 72
M  V30 75 1 29 73 CFG=1
M  V30 END BOND
M  V30 END CTAB
M  END
>  <Dataset>  (140) 
OralDrugs

>  <Ligand_Instance>  (140) 
nan

>  <PDB_ID>  (140) 
nan

>  <Standardized_SMILES>  (140) 
C=C1CC[C@H](O)C/C1=C/C=C1\CCC[C@]2(C)[C@@H]([C@H](C)CCCC(C)(C)O)CC[C@@H]12

>  <Name>  (140) 
Calcifediol

>  <Pocket>  (140) 
nan

>  <ATP_Site>  (140) 
nan

>  <Peripheral>  (140) 
nan

>  <Num_H_Atoms_ProtBoundConf>  (140) 
nan

>  <Num_Resolved_Atoms>  (140) 
nan

>  <Num_Not_Resolved_Atoms>  (140) 
nan

$$$$
CHEMBL846
     RDKit          3D

  0  0  0  0  0  0  0  0  0  0999 V3000
M  V30 BEGIN CTAB
M  V30 COUNTS 74 76 0 0 0
M  V30 BEGIN ATOM
M  V30 1 C 0.977968 4.390645 -1.457917 0
M  V30 2 C 0.934356 4.967311 -0.241751 0
M  V30 3 C -0.262683 4.613853 0.534551 0
M  V30 4 C -0.700541 3.368724 0.460462 0
M  V30 5 C -0.092160 2.306672 -0.327300 0
M  V30 6 C -0.682105 1.095465 -0.294327 0
M  V30 7 C -1.917655 0.969570 0.559367 0
M  V30 8 C -2.489223 -0.386802 0.578915 0
M  V30 9 C -1.634984 -1.506663 0.083775 0
M  V30 10 C -1.191124 -1.146694 -1.304496 0 CFG=2
M  V30 11 C -2.282963 -0.566403 -2.140788 0
M  V30 12 C -0.268816 -2.089887 -1.980794 0 CFG=1
M  V30 13 C -0.684899 -3.351411 -2.521952 0 CFG=2
M  V30 14 C -1.752773 -3.250849 -3.626775 0
M  V30 15 C -1.106428 -4.492868 -1.693523 0
M  V30 16 C -0.266686 -5.159094 -0.703500 0
M  V30 17 C 0.157330 -4.367064 0.456585 0
M  V30 18 C 1.017314 -5.201669 1.431973 0
M  V30 19 C 1.377970 -4.260358 2.565403 0
M  V30 20 C 0.207290 -6.333636 1.976282 0
M  V30 21 O 2.183599 -5.593912 0.802933 0
M  V30 22 C 0.239144 -1.115349 -3.099267 0
M  V30 23 C 0.245976 0.249071 -2.457326 0
M  V30 24 C -0.162320 -0.058830 -1.049346 0 CFG=1
M  V30 25 C -0.868098 5.721381 1.362445 0
M  V30 26 C 0.313656 6.379979 2.075104 0 CFG=1
M  V30 27 O 1.042562 5.343676 2.659964 0
M  V30 28 C 1.150195 7.036728 0.997454 0
M  V30 29 C 1.947803 5.900147 0.337639 0 CFG=2
M  V30 30 O 2.789135 6.429862 -0.608155 0
M  V30 31 H 1.167587 4.015640 -2.448821 0
M  V30 32 H 1.289267 4.124624 -2.454969 0
M  V30 33 H -1.581016 3.204198 1.058472 0
M  V30 34 H 0.761855 2.182503 -0.970518 0
M  V30 35 H -2.641267 1.749460 0.170688 0
M  V30 36 H -1.735407 1.262577 1.613477 0
M  V30 37 H -3.434550 -0.382723 -0.032670 0
M  V30 38 H -2.840110 -0.694746 1.609857 0
M  V30 39 H -0.734940 -1.560881 0.753644 0
M  V30 40 H -2.183274 -2.434563 0.193729 0
M  V30 41 H -3.298159 -0.997187 -1.949654 0
M  V30 42 H -2.438322 0.535077 -1.933658 0
M  V30 43 H -2.062102 -0.609632 -3.204919 0
M  V30 44 H 0.647670 -2.166047 -1.367747 0
M  V30 45 H 0.207114 -3.749231 -3.131992 0
M  V30 46 H -1.395413 -2.799731 -4.544557 0
M  V30 47 H -2.727183 -2.912981 -3.242578 0
M  V30 48 H -1.947889 -4.330915 -3.909173 0
M  V30 49 H -2.147495 -4.278365 -1.246874 0
M  V30 50 H -1.448226 -5.291967 -2.482296 0
M  V30 51 H -0.905275 -6.011631 -0.270688 0
M  V30 52 H 0.576208 -5.762139 -1.158882 0
M  V30 53 H 0.676130 -3.438201 0.347891 0
M  V30 54 H -0.775669 -4.132994 1.058313 0
M  V30 55 H 1.547475 -3.244940 2.137131 0
M  V30 56 H 0.520733 -4.197813 3.285521 0
M  V30 57 H 2.256341 -4.598864 3.120752 0
M  V30 58 H 0.640802 -7.280511 1.548730 0
M  V30 59 H 0.367241 -6.402134 3.076674 0
M  V30 60 H -0.876228 -6.280753 1.761294 0
M  V30 61 H 2.927820 -4.962409 1.030306 0
M  V30 62 H -0.330236 -1.207427 -4.011231 0
M  V30 63 H 1.287697 -1.440161 -3.360891 0
M  V30 64 H -0.392025 0.991021 -2.967952 0
M  V30 65 H 1.287718 0.676674 -2.473348 0
M  V30 66 H 0.704719 -0.539089 -0.549616 0
M  V30 67 H -1.496090 5.267266 2.157779 0
M  V30 68 H -1.412950 6.432299 0.716728 0
M  V30 69 H -0.032019 7.105672 2.837838 0
M  V30 70 H 1.620989 5.681604 3.386118 0
M  V30 71 H 1.825479 7.795150 1.441696 0
M  V30 72 H 0.467619 7.467188 0.227092 0
M  V30 73 H 2.522198 5.438638 1.166526 0
M  V30 74 H 2.409800 7.195733 -1.098580 0
M  V30 END ATOM
M  V30 BEGIN BOND
M  V30 1 2 1 2
M  V30 2 1 2 3
M  V30 3 2 3 4
M  V30 4 1 4 5
M  V30 5 2 5 6
M  V30 6 1 6 7
M  V30 7 1 7 8
M  V30 8 1 8 9
M  V30 9 1 9 10
M  V30 10 1 10 11 CFG=3
M  V30 11 1 10 12
M  V30 12 1 12 13
M  V30 13 1 13 14
M  V30 14 1 13 15
M  V30 15 1 15 16
M  V30 16 1 16 17
M  V30 17 1 17 18
M  V30 18 1 18 19
M  V30 19 1 18 20
M  V30 20 1 18 21
M  V30 21 1 12 22
M  V30 22 1 22 23
M  V30 23 1 23 24
M  V30 24 1 3 25
M  V30 25 1 25 26
M  V30 26 1 26 27
M  V30 27 1 26 28
M  V30 28 1 28 29
M  V30 29 1 29 30
M  V30 30 1 29 2
M  V30 31 1 24 6
M  V30 32 1 24 10
M  V30 33 1 1 31
M  V30 34 1 1 32
M  V30 35 1 4 33
M  V30 36 1 5 34
M  V30 37 1 7 35
M  V30 38 1 7 36
M  V30 39 1 8 37
M  V30 40 1 8 38
M  V30 41 1 9 39
M  V30 42 1 9 40
M  V30 43 1 11 41
M  V30 44 1 11 42
M  V30 45 1 11 43
M  V30 46 1 12 44 CFG=1
M  V30 47 1 13 45 CFG=3
M  V30 48 1 14 46
M  V30 49 1 14 47
M  V30 50 1 14 48
M  V30 51 1 15 49
M  V30 52 1 15 50
M  V30 53 1 16 51
M  V30 54 1 16 52
M  V30 55 1 17 53
M  V30 56 1 17 54
M  V30 57 1 19 55
M  V30 58 1 19 56
M  V30 59 1 19 57
M  V30 60 1 20 58
M  V30 61 1 20 59
M  V30 62 1 20 60
M  V30 63 1 21 61
M  V30 64 1 22 62
M  V30 65 1 22 63
M  V30 66 1 23 64
M  V30 67 1 23 65
M  V30 68 1 24 66 CFG=1
M  V30 69 1 25 67
M  V30 70 1 25 68
M  V30 71 1 26 69 CFG=1
M  V30 72 1 27 70
M  V30 73 1 28 71
M  V30 74 1 28 72
M  V30 75 1 29 73 CFG=1
M  V30 76 1 30 74
M  V30 END BOND
M  V30 END CTAB
M  END
>  <Dataset>  (141) 
OralDrugs

>  <Ligand_Instance>  (141) 
nan

>  <PDB_ID>  (141) 
nan

>  <Standardized_SMILES>  (141) 
C=C1/C(=C\C=C2/CCC[C@]3(C)[C@@H]([C@H](C)CCCC(C)(C)O)CC[C@@H]23)C[C@@H](O)C[C@@H]1O

>  <Name>  (141) 
Calcitriol

>  <Pocket>  (141) 
nan

>  <ATP_Site>  (141) 
nan

>  <Peripheral>  (141) 
nan

>  <Num_H_Atoms_ProtBoundConf>  (141) 
nan

>  <Num_Resolved_Atoms>  (141) 
nan

>  <Num_Not_Resolved_Atoms>  (141) 
nan

$$$$
CHEMBL1200800
     RDKit          3D

  0  0  0  0  0  0  0  0  0  0999 V3000
M  V30 BEGIN CTAB
M  V30 COUNTS 8 7 0 0 0
M  V30 BEGIN ATOM
M  V30 1 C 2.552091 -1.417588 2.142577 0
M  V30 2 C 1.101693 -1.758304 2.151372 0
M  V30 3 O 0.717913 -2.954645 2.046645 0
M  V30 4 O 0.017289 -0.907704 2.264922 0
M  V30 5 H 2.697450 -0.403542 2.603405 0
M  V30 6 H 3.059420 -2.199020 2.762871 0
M  V30 7 H 2.894164 -1.378515 1.109259 0
M  V30 8 H -0.893434 -1.078692 1.899510 0
M  V30 END ATOM
M  V30 BEGIN BOND
M  V30 1 1 1 2
M  V30 2 2 2 3
M  V30 3 1 2 4
M  V30 4 1 1 5
M  V30 5 1 1 6
M  V30 6 1 1 7
M  V30 7 1 4 8
M  V30 END BOND
M  V30 END CTAB
M  END
>  <Dataset>  (142) 
OralDrugs

>  <Ligand_Instance>  (142) 
nan

>  <PDB_ID>  (142) 
nan

>  <Standardized_SMILES>  (142) 
CC(=O)O

>  <Name>  (142) 
Calcium Acetate

>  <Pocket>  (142) 
nan

>  <ATP_Site>  (142) 
nan

>  <Peripheral>  (142) 
nan

>  <Num_H_Atoms_ProtBoundConf>  (142) 
nan

>  <Num_Resolved_Atoms>  (142) 
nan

>  <Num_Not_Resolved_Atoms>  (142) 
nan

$$$$
CHEMBL1200539
     RDKit          3D

  0  0  0  0  0  0  0  0  0  0999 V3000
M  V30 BEGIN CTAB
M  V30 COUNTS 6 5 0 0 0
M  V30 BEGIN ATOM
M  V30 1 O 0.686528 -2.829894 3.000711 0
M  V30 2 C 1.491630 -1.909771 2.712503 0
M  V30 3 O 1.575195 -0.865843 3.628982 0
M  V30 4 O 2.250475 -1.929898 1.555369 0
M  V30 5 H 0.941066 -0.724681 4.392456 0
M  V30 6 H 2.145845 -2.668915 0.874510 0
M  V30 END ATOM
M  V30 BEGIN BOND
M  V30 1 2 1 2
M  V30 2 1 2 3
M  V30 3 1 2 4
M  V30 4 1 3 5
M  V30 5 1 4 6
M  V30 END BOND
M  V30 END CTAB
M  END
>  <Dataset>  (143) 
OralDrugs

>  <Ligand_Instance>  (143) 
nan

>  <PDB_ID>  (143) 
nan

>  <Standardized_SMILES>  (143) 
O=C(O)O

>  <Name>  (143) 
Calcium Carbonate

>  <Pocket>  (143) 
nan

>  <ATP_Site>  (143) 
nan

>  <Peripheral>  (143) 
nan

>  <Num_H_Atoms_ProtBoundConf>  (143) 
nan

>  <Num_Resolved_Atoms>  (143) 
nan

>  <Num_Not_Resolved_Atoms>  (143) 
nan

$$$$
CHEMBL4594393
     RDKit          3D

  0  0  0  0  0  0  0  0  0  0999 V3000
M  V30 BEGIN CTAB
M  V30 COUNTS 15 14 0 0 0
M  V30 BEGIN ATOM
M  V30 1 O 1.034963 -1.846448 2.530739 0
M  V30 2 C 0.306504 -1.101368 1.815370 0
M  V30 3 O -0.900422 -0.642597 2.349690 0
M  V30 4 C 0.556390 -0.613744 0.417222 0
M  V30 5 C 0.955656 0.838354 0.442044 0
M  V30 6 C 2.205999 1.076204 1.229762 0
M  V30 7 O 3.270820 0.359523 0.676013 0
M  V30 8 H -1.016665 -0.477173 3.354923 0
M  V30 9 H -0.360721 -0.782657 -0.170028 0
M  V30 10 H 1.432226 -1.198531 0.068994 0
M  V30 11 H 1.076869 1.191479 -0.621622 0
M  V30 12 H 0.130746 1.425332 0.904243 0
M  V30 13 H 2.039865 0.805552 2.281909 0
M  V30 14 H 2.467465 2.136042 1.202875 0
M  V30 15 H 3.091063 0.128869 -0.272813 0
M  V30 END ATOM
M  V30 BEGIN BOND
M  V30 1 2 1 2
M  V30 2 1 2 3
M  V30 3 1 2 4
M  V30 4 1 4 5
M  V30 5 1 5 6
M  V30 6 1 6 7
M  V30 7 1 3 8
M  V30 8 1 4 9
M  V30 9 1 4 10
M  V30 10 1 5 11
M  V30 11 1 5 12
M  V30 12 1 6 13
M  V30 13 1 6 14
M  V30 14 1 7 15
M  V30 END BOND
M  V30 END CTAB
M  END
>  <Dataset>  (144) 
OralDrugs

>  <Ligand_Instance>  (144) 
nan

>  <PDB_ID>  (144) 
nan

>  <Standardized_SMILES>  (144) 
O=C(O)CCCO

>  <Name>  (144) 
Calcium Oxybate

>  <Pocket>  (144) 
nan

>  <ATP_Site>  (144) 
nan

>  <Peripheral>  (144) 
nan

>  <Num_H_Atoms_ProtBoundConf>  (144) 
nan

>  <Num_Resolved_Atoms>  (144) 
nan

>  <Num_Not_Resolved_Atoms>  (144) 
nan

$$$$
CHEMBL4594217
     RDKit          3D

  0  0  0  0  0  0  0  0  0  0999 V3000
M  V30 BEGIN CTAB
M  V30 COUNTS 56 59 0 0 0
M  V30 BEGIN ATOM
M  V30 1 C -2.966013 -1.173387 3.834378 0
M  V30 2 C -1.824999 -0.424814 3.287772 0
M  V30 3 C -0.757414 -0.144839 4.114916 0
M  V30 4 C 0.300804 0.560365 3.582640 0
M  V30 5 C 0.320481 0.986711 2.267331 0
M  V30 6 C 1.487664 1.741712 1.743695 0 CFG=2
M  V30 7 O 1.032267 2.816525 1.032390 0
M  V30 8 C 1.915101 3.432984 0.201257 0 CFG=2
M  V30 9 C 1.395913 3.512462 -1.236861 0
M  V30 10 O 1.150581 2.254613 -1.778747 0
M  V30 11 C 3.338622 3.030477 0.269200 0 CFG=1
M  V30 12 O 4.086257 3.859885 1.136916 0
M  V30 13 C 3.648502 1.632854 0.633050 0 CFG=2
M  V30 14 O 4.261180 0.955642 -0.445155 0
M  V30 15 C 2.432601 0.849673 0.987138 0 CFG=1
M  V30 16 O 2.813531 -0.184798 1.842585 0
M  V30 17 C -0.779582 0.671420 1.499678 0
M  V30 18 C -1.879909 -0.035620 1.969283 0
M  V30 19 C -2.993991 -0.308161 1.025445 0
M  V30 20 C -2.927269 -1.699903 0.583852 0
M  V30 21 C -3.443781 -2.880786 0.964242 0
M  V30 22 C -3.135434 -4.015469 0.275240 0
M  V30 23 C -2.281624 -3.877278 -0.809246 0
M  V30 24 C -1.750195 -4.896241 -1.760743 0
M  V30 25 C -2.121279 -6.210706 -1.603065 0
M  V30 26 C -1.589573 -7.082414 -2.519186 0
M  V30 27 C -0.742168 -6.701686 -3.535789 0
M  V30 28 F -0.273873 -7.651064 -4.386761 0
M  V30 29 C -0.414424 -5.352804 -3.628027 0
M  V30 30 C -0.921786 -4.435289 -2.732509 0
M  V30 31 S -1.922617 -2.069489 -0.826130 0
M  V30 32 H -2.727483 -2.264609 3.714270 0
M  V30 33 H -3.926302 -1.003530 3.348708 0
M  V30 34 H -3.042911 -0.928350 4.928618 0
M  V30 35 H -0.763832 -0.474117 5.147328 0
M  V30 36 H 1.174690 0.807930 4.201191 0
M  V30 37 H 2.045742 2.145961 2.614213 0
M  V30 38 H 1.895552 4.515904 0.536420 0
M  V30 39 H 0.507664 4.194594 -1.290327 0
M  V30 40 H 2.144802 3.986315 -1.902532 0
M  V30 41 H 0.180371 2.243129 -2.010261 0
M  V30 42 H 3.786912 3.249765 -0.742811 0
M  V30 43 H 3.507107 4.584142 1.484665 0
M  V30 44 H 4.382353 1.540140 1.467297 0
M  V30 45 H 4.922701 1.519771 -0.906523 0
M  V30 46 H 1.953555 0.349146 0.123726 0
M  V30 47 H 3.496319 -0.780197 1.395533 0
M  V30 48 H -0.784424 0.996108 0.466958 0
M  V30 49 H -2.946596 0.420295 0.189721 0
M  V30 50 H -3.982078 -0.142339 1.501489 0
M  V30 51 H -4.103970 -2.898657 1.821855 0
M  V30 52 H -3.488882 -5.013662 0.487684 0
M  V30 53 H -2.788172 -6.440856 -0.785306 0
M  V30 54 H -1.901242 -8.128309 -2.372617 0
M  V30 55 H 0.254511 -5.054557 -4.431625 0
M  V30 56 H -0.630459 -3.390459 -2.853620 0
M  V30 END ATOM
M  V30 BEGIN BOND
M  V30 1 1 1 2
M  V30 2 2 2 3
M  V30 3 1 3 4
M  V30 4 2 4 5
M  V30 5 1 5 6
M  V30 6 1 6 7
M  V30 7 1 7 8
M  V30 8 1 8 9
M  V30 9 1 9 10
M  V30 10 1 8 11
M  V30 11 1 11 12
M  V30 12 1 11 13
M  V30 13 1 13 14
M  V30 14 1 13 15
M  V30 15 1 15 16
M  V30 16 1 5 17
M  V30 17 2 17 18
M  V30 18 1 18 19
M  V30 19 1 19 20
M  V30 20 2 20 21
M  V30 21 1 21 22
M  V30 22 2 22 23
M  V30 23 1 23 24
M  V30 24 2 24 25
M  V30 25 1 25 26
M  V30 26 2 26 27
M  V30 27 1 27 28
M  V30 28 1 27 29
M  V30 29 2 29 30
M  V30 30 1 23 31
M  V30 31 1 18 2
M  V30 32 1 31 20
M  V30 33 1 15 6
M  V30 34 1 30 24
M  V30 35 1 1 32
M  V30 36 1 1 33
M  V30 37 1 1 34
M  V30 38 1 3 35
M  V30 39 1 4 36
M  V30 40 1 6 37 CFG=1
M  V30 41 1 8 38 CFG=1
M  V30 42 1 9 39
M  V30 43 1 9 40
M  V30 44 1 10 41
M  V30 45 1 11 42 CFG=3
M  V30 46 1 12 43
M  V30 47 1 13 44 CFG=1
M  V30 48 1 14 45
M  V30 49 1 15 46 CFG=3
M  V30 50 1 16 47
M  V30 51 1 17 48
M  V30 52 1 19 49
M  V30 53 1 19 50
M  V30 54 1 21 51
M  V30 55 1 22 52
M  V30 56 1 25 53
M  V30 57 1 26 54
M  V30 58 1 29 55
M  V30 59 1 30 56
M  V30 END BOND
M  V30 END CTAB
M  END
>  <Dataset>  (145) 
OralDrugs

>  <Ligand_Instance>  (145) 
nan

>  <PDB_ID>  (145) 
nan

>  <Standardized_SMILES>  (145) 
Cc1ccc([C@@H]2O[C@H](CO)[C@@H](O)[C@H](O)[C@H]2O)cc1Cc1ccc(-c2ccc(F)cc2)s1

>  <Name>  (145) 
Canagliflozin

>  <Pocket>  (145) 
nan

>  <ATP_Site>  (145) 
nan

>  <Peripheral>  (145) 
nan

>  <Num_H_Atoms_ProtBoundConf>  (145) 
nan

>  <Num_Resolved_Atoms>  (145) 
nan

>  <Num_Not_Resolved_Atoms>  (145) 
nan

$$$$
CHEMBL190461
     RDKit          3D

  0  0  0  0  0  0  0  0  0  0999 V3000
M  V30 BEGIN CTAB
M  V30 COUNTS 53 54 0 0 0
M  V30 BEGIN ATOM
M  V30 1 C 0.784062 -0.268309 -2.721506 0
M  V30 2 C 0.672944 0.122984 -1.453844 0
M  V30 3 C -0.775928 0.125076 -1.144555 0
M  V30 4 C 1.904303 0.439707 -0.713655 0 CFG=2
M  V30 5 C 3.140399 0.263028 -1.578093 0
M  V30 6 C 4.333221 -0.242783 -0.843185 0
M  V30 7 C 4.407784 0.275164 0.561231 0
M  V30 8 C 5.651461 0.839531 1.134739 0
M  V30 9 C 3.259797 0.191341 1.269091 0
M  V30 10 C 2.130907 -0.406905 0.505422 0 CFG=1
M  V30 11 C 0.961840 -0.715216 1.301751 0
M  V30 12 C 0.472716 0.048092 2.341642 0
M  V30 13 O 1.144915 1.219752 2.666948 0
M  V30 14 C -0.661161 -0.290375 3.086831 0
M  V30 15 C -1.345064 -1.448073 2.782896 0
M  V30 16 C -2.551525 -1.877023 3.521121 0
M  V30 17 C -3.834995 -1.335961 2.913110 0
M  V30 18 C -3.948030 -1.842841 1.476005 0
M  V30 19 C -5.231299 -1.320325 0.821477 0
M  V30 20 C -5.313971 -1.840502 -0.602443 0
M  V30 21 C -0.923925 -2.268504 1.758600 0
M  V30 22 C 0.204080 -1.869868 1.066199 0
M  V30 23 O 0.641450 -2.696713 0.022375 0
M  V30 24 H 1.026672 -0.567698 -3.724338 0
M  V30 25 H 1.158342 -0.550896 -3.698834 0
M  V30 26 H -1.187075 -0.897772 -1.278740 0
M  V30 27 H -1.306307 0.855455 -1.811630 0
M  V30 28 H -0.997131 0.488247 -0.114838 0
M  V30 29 H 1.908279 1.506379 -0.346701 0
M  V30 30 H 3.344356 1.157939 -2.201395 0
M  V30 31 H 2.854093 -0.544001 -2.312699 0
M  V30 32 H 4.420210 -1.360971 -0.857436 0
M  V30 33 H 5.234607 0.136653 -1.377066 0
M  V30 34 H 6.181751 1.422357 0.333579 0
M  V30 35 H 5.390139 1.597987 1.907410 0
M  V30 36 H 6.326236 0.035728 1.542912 0
M  V30 37 H 3.356817 0.576740 2.280447 0
M  V30 38 H 2.553954 -1.378462 0.111172 0
M  V30 39 H 0.593850 2.065195 2.595814 0
M  V30 40 H -1.006616 0.326258 3.882504 0
M  V30 41 H -2.467291 -1.607502 4.573972 0
M  V30 42 H -2.666059 -2.994060 3.504120 0
M  V30 43 H -4.660931 -1.805812 3.479202 0
M  V30 44 H -3.927170 -0.251140 2.968252 0
M  V30 45 H -3.920649 -2.937515 1.433321 0
M  V30 46 H -3.089379 -1.447780 0.910723 0
M  V30 47 H -6.093657 -1.709653 1.376817 0
M  V30 48 H -5.211771 -0.211570 0.826897 0
M  V30 49 H -4.685198 -2.751626 -0.683000 0
M  V30 50 H -4.898130 -1.086692 -1.314852 0
M  V30 51 H -6.346023 -2.104289 -0.893062 0
M  V30 52 H -1.418693 -3.171071 1.487290 0
M  V30 53 H -0.005140 -2.905689 -0.704397 0
M  V30 END ATOM
M  V30 BEGIN BOND
M  V30 1 2 1 2
M  V30 2 1 2 3
M  V30 3 1 2 4
M  V30 4 1 4 5
M  V30 5 1 5 6
M  V30 6 1 6 7
M  V30 7 1 7 8
M  V30 8 2 7 9
M  V30 9 1 9 10
M  V30 10 1 10 11
M  V30 11 2 11 12
M  V30 12 1 12 13
M  V30 13 1 12 14
M  V30 14 2 14 15
M  V30 15 1 15 16
M  V30 16 1 16 17
M  V30 17 1 17 18
M  V30 18 1 18 19
M  V30 19 1 19 20
M  V30 20 1 15 21
M  V30 21 2 21 22
M  V30 22 1 22 23
M  V30 23 1 10 4
M  V30 24 1 22 11
M  V30 25 1 1 24
M  V30 26 1 1 25
M  V30 27 1 3 26
M  V30 28 1 3 27
M  V30 29 1 3 28
M  V30 30 1 4 29 CFG=1
M  V30 31 1 5 30
M  V30 32 1 5 31
M  V30 33 1 6 32
M  V30 34 1 6 33
M  V30 35 1 8 34
M  V30 36 1 8 35
M  V30 37 1 8 36
M  V30 38 1 9 37
M  V30 39 1 10 38 CFG=3
M  V30 40 1 13 39
M  V30 41 1 14 40
M  V30 42 1 16 41
M  V30 43 1 16 42
M  V30 44 1 17 43
M  V30 45 1 17 44
M  V30 46 1 18 45
M  V30 47 1 18 46
M  V30 48 1 19 47
M  V30 49 1 19 48
M  V30 50 1 20 49
M  V30 51 1 20 50
M  V30 52 1 20 51
M  V30 53 1 21 52
M  V30 54 1 23 53
M  V30 END BOND
M  V30 END CTAB
M  END
>  <Dataset>  (146) 
OralDrugs

>  <Ligand_Instance>  (146) 
nan

>  <PDB_ID>  (146) 
nan

>  <Standardized_SMILES>  (146) 
C=C(C)[C@@H]1CCC(C)=C[C@H]1c1c(O)cc(CCCCC)cc1O

>  <Name>  (146) 
Cannabidiol

>  <Pocket>  (146) 
nan

>  <ATP_Site>  (146) 
nan

>  <Peripheral>  (146) 
nan

>  <Num_H_Atoms_ProtBoundConf>  (146) 
nan

>  <Num_Resolved_Atoms>  (146) 
nan

>  <Num_Not_Resolved_Atoms>  (146) 
nan

$$$$
CHEMBL2325741
     RDKit          3D

  0  0  0  0  0  0  0  0  0  0999 V3000
M  V30 BEGIN CTAB
M  V30 COUNTS 55 58 0 0 0
M  V30 BEGIN ATOM
M  V30 1 N -1.317323 0.681889 -1.187219 0
M  V30 2 C -0.975441 -0.353027 -0.227779 0
M  V30 3 C 0.425258 -0.029693 0.218575 0
M  V30 4 O 0.796762 -0.881470 1.046997 0
M  V30 5 N 1.168161 1.080187 -0.255366 0
M  V30 6 C 2.478721 1.449401 0.111168 0 CFG=1
M  V30 7 C 3.513808 1.473045 -0.958870 0
M  V30 8 C 3.655310 0.077356 -1.581967 0
M  V30 9 O 4.033740 -0.847119 -0.609234 0
M  V30 10 C 2.446435 2.765057 0.801415 0
M  V30 11 C 3.183967 2.954839 1.975600 0
M  V30 12 C 3.143607 4.185099 2.606938 0
M  V30 13 C 2.408789 5.250113 2.140067 0
M  V30 14 Cl 2.449824 6.753999 3.043185 0
M  V30 15 C 1.677279 5.064088 0.976607 0
M  V30 16 C 1.709931 3.831774 0.333045 0
M  V30 17 C -1.948097 -0.300528 0.887936 0
M  V30 18 C -2.405117 -1.617095 1.442423 0
M  V30 19 N -2.623272 -2.597341 0.425630 0
M  V30 20 C -3.095877 -3.891509 0.675072 0
M  V30 21 N -4.285083 -4.241462 0.100865 0
M  V30 22 C -4.820089 -5.474973 0.290861 0
M  V30 23 N -4.252697 -6.442384 1.037332 0
M  V30 24 C -3.078844 -6.195962 1.645258 0
M  V30 25 N -2.207969 -6.841781 2.440031 0
M  V30 26 C -1.163054 -6.035675 2.735855 0
M  V30 27 C -1.332607 -4.827570 2.130797 0
M  V30 28 C -2.508618 -4.876558 1.440867 0
M  V30 29 C -2.357427 -2.298087 -0.981827 0
M  V30 30 C -0.982101 -1.644891 -0.996511 0
M  V30 31 H -2.077025 0.436605 -1.828942 0
M  V30 32 H -1.365468 1.610540 -0.742703 0
M  V30 33 H 0.673518 1.681749 -0.954715 0
M  V30 34 H 2.837357 0.686888 0.863765 0
M  V30 35 H 3.420774 2.248641 -1.715394 0
M  V30 36 H 4.492733 1.651510 -0.460515 0
M  V30 37 H 4.444116 0.088566 -2.348334 0
M  V30 38 H 2.677047 -0.299612 -1.966823 0
M  V30 39 H 4.635713 -0.369534 0.034801 0
M  V30 40 H 3.768511 2.123314 2.355756 0
M  V30 41 H 3.752054 4.238812 3.518244 0
M  V30 42 H 1.103826 5.908041 0.619221 0
M  V30 43 H 1.137615 3.687975 -0.576276 0
M  V30 44 H -2.806251 0.350213 0.626915 0
M  V30 45 H -1.437739 0.256787 1.728984 0
M  V30 46 H -3.426184 -1.410933 1.883450 0
M  V30 47 H -1.793808 -1.915230 2.291744 0
M  V30 48 H -5.768549 -5.708737 -0.185696 0
M  V30 49 H -4.677296 -7.377211 1.169368 0
M  V30 50 H -0.319807 -6.322503 3.364577 0
M  V30 51 H -0.655921 -4.014098 2.199985 0
M  V30 52 H -2.319268 -3.176645 -1.622599 0
M  V30 53 H -3.144207 -1.582403 -1.349130 0
M  V30 54 H -0.316825 -2.363795 -0.476591 0
M  V30 55 H -0.627812 -1.539596 -2.029597 0
M  V30 END ATOM
M  V30 BEGIN BOND
M  V30 1 1 1 2
M  V30 2 1 2 3
M  V30 3 2 3 4
M  V30 4 1 3 5
M  V30 5 1 5 6
M  V30 6 1 6 7
M  V30 7 1 7 8
M  V30 8 1 8 9
M  V30 9 1 6 10
M  V30 10 2 10 11
M  V30 11 1 11 12
M  V30 12 2 12 13
M  V30 13 1 13 14
M  V30 14 1 13 15
M  V30 15 2 15 16
M  V30 16 1 2 17
M  V30 17 1 17 18
M  V30 18 1 18 19
M  V30 19 1 19 20
M  V30 20 1 20 21
M  V30 21 2 21 22
M  V30 22 1 22 23
M  V30 23 1 23 24
M  V30 24 2 24 25
M  V30 25 1 25 26
M  V30 26 2 26 27
M  V30 27 1 27 28
M  V30 28 1 19 29
M  V30 29 1 29 30
M  V30 30 1 30 2
M  V30 31 1 16 10
M  V30 32 2 28 20
M  V30 33 1 28 24
M  V30 34 1 1 31
M  V30 35 1 1 32
M  V30 36 1 5 33
M  V30 37 1 6 34 CFG=1
M  V30 38 1 7 35
M  V30 39 1 7 36
M  V30 40 1 8 37
M  V30 41 1 8 38
M  V30 42 1 9 39
M  V30 43 1 11 40
M  V30 44 1 12 41
M  V30 45 1 15 42
M  V30 46 1 16 43
M  V30 47 1 17 44
M  V30 48 1 17 45
M  V30 49 1 18 46
M  V30 50 1 18 47
M  V30 51 1 22 48
M  V30 52 1 23 49
M  V30 53 1 26 50
M  V30 54 1 27 51
M  V30 55 1 29 52
M  V30 56 1 29 53
M  V30 57 1 30 54
M  V30 58 1 30 55
M  V30 END BOND
M  V30 END CTAB
M  END
>  <Dataset>  (147) 
OralDrugs

>  <Ligand_Instance>  (147) 
nan

>  <PDB_ID>  (147) 
nan

>  <Standardized_SMILES>  (147) 
NC1(C(=O)N[C@@H](CCO)c2ccc(Cl)cc2)CCN(c2nc[nH]c3nccc2-3)CC1

>  <Name>  (147) 
Capivasertib

>  <Pocket>  (147) 
nan

>  <ATP_Site>  (147) 
nan

>  <Peripheral>  (147) 
nan

>  <Num_H_Atoms_ProtBoundConf>  (147) 
nan

>  <Num_Resolved_Atoms>  (147) 
nan

>  <Num_Not_Resolved_Atoms>  (147) 
nan

$$$$
CHEMBL3188267
     RDKit          3D

  0  0  0  0  0  0  0  0  0  0999 V3000
M  V30 BEGIN CTAB
M  V30 COUNTS 48 52 0 0 0
M  V30 BEGIN ATOM
M  V30 1 C -1.698876 -3.921158 -5.849706 0
M  V30 2 N -0.955617 -2.770754 -5.391768 0
M  V30 3 C -0.726580 -2.797625 -3.992656 0
M  V30 4 O -1.255525 -3.856554 -3.526092 0
M  V30 5 C -0.020290 -1.817341 -3.185096 0
M  V30 6 C 0.033248 -2.137603 -1.822886 0
M  V30 7 C 0.670805 -1.303257 -0.927293 0
M  V30 8 C 1.281653 -0.128616 -1.306495 0
M  V30 9 C 1.936181 0.702056 -0.301730 0
M  V30 10 C 2.567043 1.887965 -0.603716 0
M  V30 11 N 3.155735 2.615717 0.363775 0
M  V30 12 C 3.111026 2.153182 1.633169 0
M  V30 13 N 3.601480 2.651811 2.794268 0
M  V30 14 C 3.291361 1.805422 3.811296 0
M  V30 15 C 2.594301 0.756377 3.283366 0
M  V30 16 C 2.018617 -0.444032 3.948802 0
M  V30 17 C 0.620427 -0.227617 4.410576 0
M  V30 18 C 0.247892 0.254087 5.649732 0
M  V30 19 C -1.083286 0.419733 5.983050 0
M  V30 20 C -2.082260 0.113606 5.100243 0
M  V30 21 N -3.388185 0.262229 5.390709 0
M  V30 22 C -4.367706 -0.043925 4.509333 0
M  V30 23 C -4.040667 -0.529320 3.256953 0
M  V30 24 C -2.707820 -0.706540 2.893292 0
M  V30 25 C -1.766828 -0.371112 3.848751 0
M  V30 26 C -0.418080 -0.529954 3.534693 0
M  V30 27 N 2.494396 0.985035 1.957993 0
M  V30 28 N 1.914630 0.277730 0.974130 0
M  V30 29 C 1.227698 0.184370 -2.647102 0
M  V30 30 C 0.594285 -0.641044 -3.548451 0
M  V30 31 F 0.532607 -0.352437 -4.852831 0
M  V30 32 H -2.715306 -3.888188 -5.417428 0
M  V30 33 H -1.819861 -3.949102 -6.935651 0
M  V30 34 H -1.240353 -4.874955 -5.487788 0
M  V30 35 H -0.581871 -1.958869 -5.931427 0
M  V30 36 H -0.424316 -3.053967 -1.418539 0
M  V30 37 H 0.688927 -1.588002 0.115211 0
M  V30 38 H 2.599611 2.249756 -1.610365 0
M  V30 39 H 3.514711 1.872520 4.867528 0
M  V30 40 H 1.999496 -1.295136 3.223271 0
M  V30 41 H 2.678241 -0.799599 4.775338 0
M  V30 42 H 1.084441 0.481090 6.311746 0
M  V30 43 H -1.308934 0.796145 6.956400 0
M  V30 44 H -5.426706 0.065895 4.716713 0
M  V30 45 H -4.766183 -0.803054 2.480484 0
M  V30 46 H -2.443589 -1.082776 1.923392 0
M  V30 47 H -0.160911 -0.915044 2.540937 0
M  V30 48 H 1.684963 1.085643 -3.003404 0
M  V30 END ATOM
M  V30 BEGIN BOND
M  V30 1 1 1 2
M  V30 2 1 2 3
M  V30 3 2 3 4
M  V30 4 1 3 5
M  V30 5 2 5 6
M  V30 6 1 6 7
M  V30 7 2 7 8
M  V30 8 1 8 9
M  V30 9 1 9 10
M  V30 10 2 10 11
M  V30 11 1 11 12
M  V30 12 2 12 13
M  V30 13 1 13 14
M  V30 14 2 14 15
M  V30 15 1 15 16
M  V30 16 1 16 17
M  V30 17 2 17 18
M  V30 18 1 18 19
M  V30 19 2 19 20
M  V30 20 1 20 21
M  V30 21 2 21 22
M  V30 22 1 22 23
M  V30 23 2 23 24
M  V30 24 1 24 25
M  V30 25 2 25 26
M  V30 26 1 15 27
M  V30 27 1 27 28
M  V30 28 1 8 29
M  V30 29 2 29 30
M  V30 30 1 30 31
M  V30 31 1 30 5
M  V30 32 2 28 9
M  V30 33 1 27 12
M  V30 34 1 26 17
M  V30 35 1 25 20
M  V30 36 1 1 32
M  V30 37 1 1 33
M  V30 38 1 1 34
M  V30 39 1 2 35
M  V30 40 1 6 36
M  V30 41 1 7 37
M  V30 42 1 10 38
M  V30 43 1 14 39
M  V30 44 1 16 40
M  V30 45 1 16 41
M  V30 46 1 18 42
M  V30 47 1 19 43
M  V30 48 1 22 44
M  V30 49 1 23 45
M  V30 50 1 24 46
M  V30 51 1 26 47
M  V30 52 1 29 48
M  V30 END BOND
M  V30 END CTAB
M  END
>  <Dataset>  (148) 
OralDrugs

>  <Ligand_Instance>  (148) 
nan

>  <PDB_ID>  (148) 
nan

>  <Standardized_SMILES>  (148) 
CNC(=O)c1ccc(-c2cnc3ncc(Cc4ccc5ncccc5c4)n3n2)cc1F

>  <Name>  (148) 
Capmatinib

>  <Pocket>  (148) 
nan

>  <ATP_Site>  (148) 
nan

>  <Peripheral>  (148) 
nan

>  <Num_H_Atoms_ProtBoundConf>  (148) 
nan

>  <Num_Resolved_Atoms>  (148) 
nan

>  <Num_Not_Resolved_Atoms>  (148) 
nan

$$$$
CHEMBL1560
     RDKit          3D

  0  0  0  0  0  0  0  0  0  0999 V3000
M  V30 BEGIN CTAB
M  V30 COUNTS 29 29 0 0 0
M  V30 BEGIN ATOM
M  V30 1 C -1.086667 -0.163087 3.776723 0
M  V30 2 C -1.121150 -0.333128 2.266526 0 CFG=2
M  V30 3 C -1.946667 -1.549056 1.890879 0
M  V30 4 S -3.651169 -1.383865 2.482005 0
M  V30 5 C 0.251377 -0.411888 1.714532 0
M  V30 6 O 0.745096 -0.309523 2.868470 0
M  V30 7 N 0.761613 -0.548239 0.401123 0
M  V30 8 C 0.242497 -0.666572 -0.954821 0
M  V30 9 C 0.921657 -1.972901 -1.353694 0
M  V30 10 C 2.339843 -1.690399 -0.854205 0
M  V30 11 C 2.196622 -0.598315 0.205770 0 CFG=1
M  V30 12 C 2.664915 0.700667 -0.397828 0
M  V30 13 O 3.899244 0.792360 -0.631375 0
M  V30 14 O 2.113791 1.908058 -0.801903 0
M  V30 15 H -0.449159 -0.962188 4.233212 0
M  V30 16 H -0.605785 0.796140 3.993606 0
M  V30 17 H -2.109932 -0.215886 4.179895 0
M  V30 18 H -1.642997 0.551692 1.852810 0
M  V30 19 H -1.516229 -2.454810 2.329944 0
M  V30 20 H -1.973699 -1.677257 0.810637 0
M  V30 21 H -4.357027 -0.486309 1.658508 0
M  V30 22 H -0.835010 -0.672655 -1.034895 0
M  V30 23 H 0.713676 0.186613 -1.525399 0
M  V30 24 H 0.438028 -2.767458 -0.772488 0
M  V30 25 H 0.879306 -2.129780 -2.430281 0
M  V30 26 H 2.811598 -2.593421 -0.412205 0
M  V30 27 H 2.922484 -1.301282 -1.708746 0
M  V30 28 H 2.775983 -0.838026 1.108654 0
M  V30 29 H 2.340656 2.738115 -0.246763 0
M  V30 END ATOM
M  V30 BEGIN BOND
M  V30 1 1 1 2
M  V30 2 1 2 3
M  V30 3 1 3 4
M  V30 4 1 2 5
M  V30 5 2 5 6
M  V30 6 1 5 7
M  V30 7 1 7 8
M  V30 8 1 8 9
M  V30 9 1 9 10
M  V30 10 1 10 11
M  V30 11 1 11 12
M  V30 12 2 12 13
M  V30 13 1 12 14
M  V30 14 1 11 7
M  V30 15 1 1 15
M  V30 16 1 1 16
M  V30 17 1 1 17
M  V30 18 1 2 18 CFG=3
M  V30 19 1 3 19
M  V30 20 1 3 20
M  V30 21 1 4 21
M  V30 22 1 8 22
M  V30 23 1 8 23
M  V30 24 1 9 24
M  V30 25 1 9 25
M  V30 26 1 10 26
M  V30 27 1 10 27
M  V30 28 1 11 28 CFG=1
M  V30 29 1 14 29
M  V30 END BOND
M  V30 END CTAB
M  END
>  <Dataset>  (149) 
OralDrugs

>  <Ligand_Instance>  (149) 
nan

>  <PDB_ID>  (149) 
nan

>  <Standardized_SMILES>  (149) 
C[C@H](CS)C(=O)N1CCC[C@H]1C(=O)O

>  <Name>  (149) 
Captopril

>  <Pocket>  (149) 
nan

>  <ATP_Site>  (149) 
nan

>  <Peripheral>  (149) 
nan

>  <Num_H_Atoms_ProtBoundConf>  (149) 
nan

>  <Num_Resolved_Atoms>  (149) 
nan

>  <Num_Not_Resolved_Atoms>  (149) 
nan

$$$$
CHEMBL108
     RDKit          3D

  0  0  0  0  0  0  0  0  0  0999 V3000
M  V30 BEGIN CTAB
M  V30 COUNTS 30 32 0 0 0
M  V30 BEGIN ATOM
M  V30 1 N -0.878464 -3.672858 -0.160777 0
M  V30 2 C 0.133955 -2.713998 0.093698 0
M  V30 3 O 0.896349 -3.596796 -0.358230 0
M  V30 4 N 0.247014 -1.414832 0.596926 0
M  V30 5 C 1.588725 -0.884747 0.639268 0
M  V30 6 C 2.518323 -1.841711 0.953055 0
M  V30 7 C 3.844514 -1.478808 1.016444 0
M  V30 8 C 4.159900 -0.150904 0.756317 0
M  V30 9 C 3.242525 0.832871 0.438890 0
M  V30 10 C 1.900278 0.458544 0.376006 0
M  V30 11 C 1.053070 1.623971 0.035174 0
M  V30 12 C -0.277658 1.701250 0.225609 0
M  V30 13 C -1.134327 0.646566 0.805322 0
M  V30 14 C -2.354743 1.157117 1.236155 0
M  V30 15 C -3.266583 0.293227 1.807891 0
M  V30 16 C -3.040182 -1.072623 1.983386 0
M  V30 17 C -1.836098 -1.587229 1.560856 0
M  V30 18 C -0.929740 -0.726432 0.991170 0
M  V30 19 H -1.322599 -4.513935 0.264223 0
M  V30 20 H -1.492035 -3.676298 -1.030141 0
M  V30 21 H 2.169003 -2.839710 1.152583 0
M  V30 22 H 4.606593 -2.205225 1.260110 0
M  V30 23 H 5.211060 0.175197 0.797938 0
M  V30 24 H 3.520320 1.847842 0.244341 0
M  V30 25 H 1.528056 2.470761 -0.394646 0
M  V30 26 H -0.771045 2.609385 -0.067717 0
M  V30 27 H -2.557099 2.208697 1.113606 0
M  V30 28 H -4.232490 0.681054 2.151801 0
M  V30 29 H -3.767420 -1.731644 2.433382 0
M  V30 30 H -1.556326 -2.615874 1.660266 0
M  V30 END ATOM
M  V30 BEGIN BOND
M  V30 1 1 1 2
M  V30 2 2 2 3
M  V30 3 1 2 4
M  V30 4 1 4 5
M  V30 5 2 5 6
M  V30 6 1 6 7
M  V30 7 2 7 8
M  V30 8 1 8 9
M  V30 9 2 9 10
M  V30 10 1 10 11
M  V30 11 2 11 12
M  V30 12 1 12 13
M  V30 13 2 13 14
M  V30 14 1 14 15
M  V30 15 2 15 16
M  V30 16 1 16 17
M  V30 17 2 17 18
M  V30 18 1 18 4
M  V30 19 1 10 5
M  V30 20 1 18 13
M  V30 21 1 1 19
M  V30 22 1 1 20
M  V30 23 1 6 21
M  V30 24 1 7 22
M  V30 25 1 8 23
M  V30 26 1 9 24
M  V30 27 1 11 25
M  V30 28 1 12 26
M  V30 29 1 14 27
M  V30 30 1 15 28
M  V30 31 1 16 29
M  V30 32 1 17 30
M  V30 END BOND
M  V30 END CTAB
M  END
>  <Dataset>  (150) 
OralDrugs

>  <Ligand_Instance>  (150) 
nan

>  <PDB_ID>  (150) 
nan

>  <Standardized_SMILES>  (150) 
NC(=O)N1c2ccccc2C=Cc2ccccc21

>  <Name>  (150) 
Carbamazepine

>  <Pocket>  (150) 
nan

>  <ATP_Site>  (150) 
nan

>  <Peripheral>  (150) 
nan

>  <Num_H_Atoms_ProtBoundConf>  (150) 
nan

>  <Num_Resolved_Atoms>  (150) 
nan

>  <Num_Not_Resolved_Atoms>  (150) 
nan

$$$$
CHEMBL499915
     RDKit          3D

  0  0  0  0  0  0  0  0  0  0999 V3000
M  V30 BEGIN CTAB
M  V30 COUNTS 91 95 0 0 0
M  V30 BEGIN ATOM
M  V30 1 C 2.742363 -3.065507 2.807847 0
M  V30 2 C 1.237088 -3.105996 2.615346 0
M  V30 3 C 0.630170 -3.350408 3.963627 0
M  V30 4 C 0.945953 -4.217410 1.638937 0 CFG=1
M  V30 5 O 0.462367 -5.376979 2.287788 0
M  V30 6 C 1.033277 -6.619151 2.065632 0
M  V30 7 O 2.016066 -6.859988 1.283235 0
M  V30 8 C 0.337270 -7.662500 2.872317 0
M  V30 9 C -1.043528 -7.949853 2.310258 0
M  V30 10 C -0.967678 -8.417258 0.906351 0
M  V30 11 O 0.013214 -8.594859 0.140850 0
M  V30 12 O -1.966627 -8.795532 0.031365 0
M  V30 13 C -0.087691 -3.778794 0.600805 0
M  V30 14 C -1.165812 -2.922119 1.204162 0
M  V30 15 C -0.589913 -1.583976 1.689586 0 CFG=2
M  V30 16 C -1.389742 -1.177964 2.866756 0
M  V30 17 C -0.628095 -0.635695 0.525475 0 CFG=1
M  V30 18 C -1.957532 -0.201165 0.082672 0
M  V30 19 O -3.097843 -0.649003 0.328194 0
M  V30 20 C -1.958799 0.971372 -0.813237 0
M  V30 21 C -0.852528 1.593917 -1.224051 0
M  V30 22 C -0.955906 2.760638 -2.121833 0 CFG=2
M  V30 23 C -1.024906 2.225098 -3.559623 0
M  V30 24 C -1.459160 3.342712 -4.489166 0 CFG=1
M  V30 25 C -1.189288 2.949246 -5.918482 0
M  V30 26 C -2.913690 3.616879 -4.344913 0
M  V30 27 O -3.666036 2.989946 -3.534755 0
M  V30 28 O -3.574779 4.569261 -5.072379 0
M  V30 29 C -0.693292 4.588162 -4.172378 0
M  V30 30 C 0.543954 4.185159 -3.372522 0
M  V30 31 C 0.073156 3.803668 -1.965573 0 CFG=1
M  V30 32 C -0.534436 5.103600 -1.421257 0
M  V30 33 C 1.232524 3.497384 -1.087663 0
M  V30 34 C 1.576159 2.077133 -0.872457 0
M  V30 35 C 0.487256 1.090931 -0.761770 0 CFG=2
M  V30 36 C 0.790464 -0.074753 -1.707593 0
M  V30 37 C 0.209440 0.592038 0.661359 0 CFG=1
M  V30 38 C -0.623549 1.661582 1.335252 0
M  V30 39 C 1.481360 0.433233 1.417056 0
M  V30 40 C 1.474702 -0.586230 2.507908 0
M  V30 41 C 0.860071 -1.821528 1.948664 0 CFG=1
M  V30 42 H 3.130733 -4.126312 2.781474 0
M  V30 43 H 2.937256 -2.560283 3.762021 0
M  V30 44 H 3.265006 -2.561073 1.954361 0
M  V30 45 H -0.285416 -3.998192 3.904102 0
M  V30 46 H 1.337768 -3.964907 4.559170 0
M  V30 47 H 0.493279 -2.408851 4.490382 0
M  V30 48 H 1.816294 -4.520210 1.025356 0
M  V30 49 H 0.913509 -8.606041 2.770742 0
M  V30 50 H 0.253318 -7.333926 3.910026 0
M  V30 51 H -1.662813 -7.019417 2.404039 0
M  V30 52 H -1.481926 -8.768402 2.911204 0
M  V30 53 H -2.316608 -8.288978 -0.751278 0
M  V30 54 H -0.608979 -4.678309 0.179412 0
M  V30 55 H 0.351137 -3.261077 -0.256340 0
M  V30 56 H -1.723413 -3.418110 2.022148 0
M  V30 57 H -1.900599 -2.759219 0.390415 0
M  V30 58 H -2.367524 -0.781469 2.525420 0
M  V30 59 H -1.694414 -2.066159 3.477232 0
M  V30 60 H -0.962586 -0.387131 3.506921 0
M  V30 61 H -0.247691 -1.282727 -0.329309 0
M  V30 62 H -2.901736 1.394364 -1.192473 0
M  V30 63 H -1.964480 3.210289 -1.949556 0
M  V30 64 H -0.103220 1.739834 -3.881272 0
M  V30 65 H -1.876250 1.487673 -3.541843 0
M  V30 66 H -0.247472 3.415640 -6.299657 0
M  V30 67 H -1.131167 1.845907 -6.033008 0
M  V30 68 H -1.998232 3.354143 -6.591709 0
M  V30 69 H -4.573338 4.644215 -5.173651 0
M  V30 70 H -1.285377 5.294367 -3.544935 0
M  V30 71 H -0.348533 5.104256 -5.094439 0
M  V30 72 H 1.221750 5.057193 -3.263485 0
M  V30 73 H 1.093818 3.386633 -3.874973 0
M  V30 74 H -0.363542 5.137442 -0.307305 0
M  V30 75 H 0.002852 5.961285 -1.824988 0
M  V30 76 H -1.622479 5.116305 -1.543258 0
M  V30 77 H 1.164387 4.020417 -0.086299 0
M  V30 78 H 2.115075 4.007935 -1.547408 0
M  V30 79 H 2.318533 1.778577 -1.673678 0
M  V30 80 H 2.225026 2.046578 0.054007 0
M  V30 81 H 1.362620 0.375283 -2.574345 0
M  V30 82 H -0.114614 -0.481724 -2.188665 0
M  V30 83 H 1.483934 -0.806607 -1.285686 0
M  V30 84 H -0.779944 2.558905 0.675306 0
M  V30 85 H -0.120285 2.050635 2.237611 0
M  V30 86 H -1.631458 1.339058 1.619368 0
M  V30 87 H 1.713242 1.414837 1.914702 0
M  V30 88 H 2.291943 0.122959 0.711005 0
M  V30 89 H 2.558650 -0.807085 2.742793 0
M  V30 90 H 1.066539 -0.226307 3.463116 0
M  V30 91 H 1.344320 -1.932511 0.931653 0
M  V30 END ATOM
M  V30 BEGIN BOND
M  V30 1 1 1 2
M  V30 2 1 2 3
M  V30 3 1 2 4
M  V30 4 1 4 5
M  V30 5 1 5 6
M  V30 6 2 6 7
M  V30 7 1 6 8
M  V30 8 1 8 9
M  V30 9 1 9 10
M  V30 10 2 10 11
M  V30 11 1 10 12
M  V30 12 1 4 13
M  V30 13 1 13 14
M  V30 14 1 14 15
M  V30 15 1 15 16 CFG=1
M  V30 16 1 15 17
M  V30 17 1 17 18
M  V30 18 2 18 19
M  V30 19 1 18 20
M  V30 20 2 20 21
M  V30 21 1 21 22
M  V30 22 1 22 23
M  V30 23 1 23 24
M  V30 24 1 24 25 CFG=3
M  V30 25 1 24 26
M  V30 26 2 26 27
M  V30 27 1 26 28
M  V30 28 1 24 29
M  V30 29 1 29 30
M  V30 30 1 30 31
M  V30 31 1 31 32 CFG=1
M  V30 32 1 31 33
M  V30 33 1 33 34
M  V30 34 1 34 35
M  V30 35 1 35 36 CFG=3
M  V30 36 1 35 37
M  V30 37 1 37 38 CFG=1
M  V30 38 1 37 39
M  V30 39 1 39 40
M  V30 40 1 40 41
M  V30 41 1 41 2
M  V30 42 1 41 15
M  V30 43 1 37 17
M  V30 44 1 35 21
M  V30 45 1 31 22
M  V30 46 1 1 42
M  V30 47 1 1 43
M  V30 48 1 1 44
M  V30 49 1 3 45
M  V30 50 1 3 46
M  V30 51 1 3 47
M  V30 52 1 4 48 CFG=3
M  V30 53 1 8 49
M  V30 54 1 8 50
M  V30 55 1 9 51
M  V30 56 1 9 52
M  V30 57 1 12 53
M  V30 58 1 13 54
M  V30 59 1 13 55
M  V30 60 1 14 56
M  V30 61 1 14 57
M  V30 62 1 16 58
M  V30 63 1 16 59
M  V30 64 1 16 60
M  V30 65 1 17 61 CFG=3
M  V30 66 1 20 62
M  V30 67 1 22 63 CFG=1
M  V30 68 1 23 64
M  V30 69 1 23 65
M  V30 70 1 25 66
M  V30 71 1 25 67
M  V30 72 1 25 68
M  V30 73 1 28 69
M  V30 74 1 29 70
M  V30 75 1 29 71
M  V30 76 1 30 72
M  V30 77 1 30 73
M  V30 78 1 32 74
M  V30 79 1 32 75
M  V30 80 1 32 76
M  V30 81 1 33 77
M  V30 82 1 33 78
M  V30 83 1 34 79
M  V30 84 1 34 80
M  V30 85 1 36 81
M  V30 86 1 36 82
M  V30 87 1 36 83
M  V30 88 1 38 84
M  V30 89 1 38 85
M  V30 90 1 38 86
M  V30 91 1 39 87
M  V30 92 1 39 88
M  V30 93 1 40 89
M  V30 94 1 40 90
M  V30 95 1 41 91 CFG=3
M  V30 END BOND
M  V30 END CTAB
M  END
>  <Dataset>  (151) 
OralDrugs

>  <Ligand_Instance>  (151) 
nan

>  <PDB_ID>  (151) 
nan

>  <Standardized_SMILES>  (151) 
CC1(C)[C@@H](OC(=O)CCC(=O)O)CC[C@]2(C)[C@H]3C(=O)C=C4[C@@H]5C[C@@](C)(C(=O)O)CC[C@]5(C)CC[C@@]4(C)[C@]3(C)CC[C@@H]12

>  <Name>  (151) 
Carbenoxolone

>  <Pocket>  (151) 
nan

>  <ATP_Site>  (151) 
nan

>  <Peripheral>  (151) 
nan

>  <Num_H_Atoms_ProtBoundConf>  (151) 
nan

>  <Num_Resolved_Atoms>  (151) 
nan

>  <Num_Not_Resolved_Atoms>  (151) 
nan

$$$$
CHEMBL1200748
     RDKit          3D

  0  0  0  0  0  0  0  0  0  0999 V3000
M  V30 BEGIN CTAB
M  V30 COUNTS 30 30 0 0 0
M  V30 BEGIN ATOM
M  V30 1 C -2.322636 -0.017085 2.897784 0
M  V30 2 C -0.942774 -0.096537 2.201284 0 CFG=1
M  V30 3 C -1.170524 -0.956086 1.007546 0
M  V30 4 C -0.014074 -1.211200 0.143484 0
M  V30 5 C 0.758460 -2.325567 0.490313 0
M  V30 6 C 1.866171 -2.668027 -0.258466 0
M  V30 7 C 2.261211 -1.945515 -1.363973 0
M  V30 8 O 3.370334 -2.258362 -2.143551 0
M  V30 9 C 1.512947 -0.847921 -1.718096 0
M  V30 10 O 1.791171 -0.016380 -2.817063 0
M  V30 11 C 0.417079 -0.518363 -0.968098 0
M  V30 12 N -0.628608 1.281973 1.906315 0
M  V30 13 N 0.588392 1.527280 1.350355 0
M  V30 14 C 0.028442 -0.616719 3.178199 0
M  V30 15 O 0.083080 -1.785244 3.693882 0
M  V30 16 O 1.051042 0.179138 3.663464 0
M  V30 17 H -2.500496 -0.977499 3.406628 0
M  V30 18 H -2.407706 0.875442 3.518387 0
M  V30 19 H -3.077770 0.072767 2.086853 0
M  V30 20 H -1.680816 -1.921911 1.280924 0
M  V30 21 H -1.956822 -0.426472 0.390152 0
M  V30 22 H 0.623269 -3.014860 1.305306 0
M  V30 23 H 2.524756 -3.520092 -0.059929 0
M  V30 24 H 3.231617 -3.036144 -2.795968 0
M  V30 25 H 1.604124 -0.432070 -3.726758 0
M  V30 26 H -0.199604 0.338970 -1.213064 0
M  V30 27 H -1.411692 1.670176 1.325685 0
M  V30 28 H 1.320632 0.828831 1.406092 0
M  V30 29 H 0.541396 1.984067 0.445378 0
M  V30 30 H 1.942274 -0.183730 3.949841 0
M  V30 END ATOM
M  V30 BEGIN BOND
M  V30 1 1 1 2
M  V30 2 1 2 3
M  V30 3 1 3 4
M  V30 4 2 4 5
M  V30 5 1 5 6
M  V30 6 2 6 7
M  V30 7 1 7 8
M  V30 8 1 7 9
M  V30 9 1 9 10
M  V30 10 2 9 11
M  V30 11 1 2 12 CFG=3
M  V30 12 1 12 13
M  V30 13 1 2 14
M  V30 14 2 14 15
M  V30 15 1 14 16
M  V30 16 1 11 4
M  V30 17 1 1 17
M  V30 18 1 1 18
M  V30 19 1 1 19
M  V30 20 1 3 20
M  V30 21 1 3 21
M  V30 22 1 5 22
M  V30 23 1 6 23
M  V30 24 1 8 24
M  V30 25 1 10 25
M  V30 26 1 11 26
M  V30 27 1 12 27
M  V30 28 1 13 28
M  V30 29 1 13 29
M  V30 30 1 16 30
M  V30 END BOND
M  V30 END CTAB
M  END
>  <Dataset>  (152) 
OralDrugs

>  <Ligand_Instance>  (152) 
nan

>  <PDB_ID>  (152) 
nan

>  <Standardized_SMILES>  (152) 
C[C@@](Cc1ccc(O)c(O)c1)(NN)C(=O)O

>  <Name>  (152) 
Carbidopa

>  <Pocket>  (152) 
nan

>  <ATP_Site>  (152) 
nan

>  <Peripheral>  (152) 
nan

>  <Num_H_Atoms_ProtBoundConf>  (152) 
nan

>  <Num_Resolved_Atoms>  (152) 
nan

>  <Num_Not_Resolved_Atoms>  (152) 
nan

$$$$
CHEMBL1200974
     RDKit          3D

  0  0  0  0  0  0  0  0  0  0999 V3000
M  V30 BEGIN CTAB
M  V30 COUNTS 39 40 0 0 0
M  V30 BEGIN ATOM
M  V30 1 C 1.212865 -2.864469 3.891796 0
M  V30 2 N 0.839301 -2.879412 2.517489 0
M  V30 3 C 0.099259 -4.033055 2.116956 0
M  V30 4 C 1.854290 -2.512109 1.583987 0
M  V30 5 C 2.250087 -1.058522 1.659010 0
M  V30 6 O 1.246179 -0.168141 1.423115 0
M  V30 7 C 0.631679 -0.219055 0.214455 0
M  V30 8 C 0.812721 1.079989 -0.521395 0
M  V30 9 C -0.226130 1.722201 -1.205817 0
M  V30 10 C -0.068337 2.913254 -1.879903 0
M  V30 11 C 1.193736 3.464977 -1.852032 0
M  V30 12 Cl 1.441985 4.988815 -2.699324 0
M  V30 13 C 2.273303 2.903387 -1.204852 0
M  V30 14 C 2.067946 1.699800 -0.537243 0
M  V30 15 C -0.853705 -0.377893 0.308907 0
M  V30 16 C -1.431858 0.497665 1.231002 0
M  V30 17 C -2.804062 0.445797 1.411670 0
M  V30 18 C -3.570101 -0.451013 0.694889 0
M  V30 19 C -2.961685 -1.299365 -0.206087 0
M  V30 20 N -1.631956 -1.241010 -0.374200 0
M  V30 21 H 1.858474 -3.728160 4.143270 0
M  V30 22 H 0.258176 -3.039069 4.469558 0
M  V30 23 H 1.593372 -1.891293 4.201858 0
M  V30 24 H -0.433359 -3.842171 1.148163 0
M  V30 25 H -0.702920 -4.222570 2.862683 0
M  V30 26 H 0.771855 -4.890578 1.972814 0
M  V30 27 H 1.461330 -2.723832 0.573746 0
M  V30 28 H 2.731868 -3.184894 1.721449 0
M  V30 29 H 2.831659 -0.845483 2.574056 0
M  V30 30 H 2.997023 -0.921419 0.824393 0
M  V30 31 H 1.070213 -1.003299 -0.410095 0
M  V30 32 H -1.206363 1.240420 -1.196849 0
M  V30 33 H -0.920284 3.344195 -2.382475 0
M  V30 34 H 3.262016 3.383720 -1.209970 0
M  V30 35 H 2.917919 1.295647 -0.051878 0
M  V30 36 H -0.895880 1.215859 1.817214 0
M  V30 37 H -3.282039 1.121432 2.127529 0
M  V30 38 H -4.642625 -0.523438 0.806162 0
M  V30 39 H -3.458988 -2.037714 -0.817940 0
M  V30 END ATOM
M  V30 BEGIN BOND
M  V30 1 1 1 2
M  V30 2 1 2 3
M  V30 3 1 2 4
M  V30 4 1 4 5
M  V30 5 1 5 6
M  V30 6 1 6 7
M  V30 7 1 7 8
M  V30 8 2 8 9
M  V30 9 1 9 10
M  V30 10 2 10 11
M  V30 11 1 11 12
M  V30 12 1 11 13
M  V30 13 2 13 14
M  V30 14 1 7 15
M  V30 15 2 15 16
M  V30 16 1 16 17
M  V30 17 2 17 18
M  V30 18 1 18 19
M  V30 19 2 19 20
M  V30 20 1 14 8
M  V30 21 1 20 15
M  V30 22 1 1 21
M  V30 23 1 1 22
M  V30 24 1 1 23
M  V30 25 1 3 24
M  V30 26 1 3 25
M  V30 27 1 3 26
M  V30 28 1 4 27
M  V30 29 1 4 28
M  V30 30 1 5 29
M  V30 31 1 5 30
M  V30 32 1 7 31
M  V30 33 1 9 32
M  V30 34 1 10 33
M  V30 35 1 13 34
M  V30 36 1 14 35
M  V30 37 1 16 36
M  V30 38 1 17 37
M  V30 39 1 18 38
M  V30 40 1 19 39
M  V30 END BOND
M  V30 END CTAB
M  END
>  <Dataset>  (153) 
OralDrugs

>  <Ligand_Instance>  (153) 
nan

>  <PDB_ID>  (153) 
nan

>  <Standardized_SMILES>  (153) 
CN(C)CCOC(c1ccc(Cl)cc1)c1ccccn1

>  <Name>  (153) 
Carbinoxamine Maleate

>  <Pocket>  (153) 
nan

>  <ATP_Site>  (153) 
nan

>  <Peripheral>  (153) 
nan

>  <Num_H_Atoms_ProtBoundConf>  (153) 
nan

>  <Num_Resolved_Atoms>  (153) 
nan

>  <Num_Not_Resolved_Atoms>  (153) 
nan

$$$$
CHEMBL1201780
     RDKit          3D

  0  0  0  0  0  0  0  0  0  0999 V3000
M  V30 BEGIN CTAB
M  V30 COUNTS 23 22 0 0 0
M  V30 BEGIN ATOM
M  V30 1 N 0.366276 0.312535 4.245342 0
M  V30 2 C 1.046226 0.309167 2.969378 0
M  V30 3 O 2.291606 0.065141 3.125335 0
M  V30 4 N 0.467170 0.539130 1.677117 0
M  V30 5 C 1.311365 0.490506 0.551417 0 CFG=1
M  V30 6 C 1.287283 -0.699723 -0.327324 0
M  V30 7 C 0.004582 -1.078488 -0.986027 0
M  V30 8 C -0.998377 -1.489445 -0.003535 0
M  V30 9 O -1.103595 -1.707029 1.213085 0
M  V30 10 O -2.211165 -1.700321 -0.645588 0
M  V30 11 C 1.185611 1.774782 -0.220143 0
M  V30 12 O 0.346076 2.250804 0.588335 0
M  V30 13 O 1.260428 2.842544 -1.109679 0
M  V30 14 H 0.776359 0.812093 5.069589 0
M  V30 15 H -0.432658 0.037033 4.850080 0
M  V30 16 H -0.542630 0.735898 1.847489 0
M  V30 17 H 2.382812 0.543766 0.959037 0
M  V30 18 H 2.101088 -0.634306 -1.114763 0
M  V30 19 H 1.589744 -1.618238 0.275118 0
M  V30 20 H -0.367885 -0.296696 -1.687825 0
M  V30 21 H 0.261069 -1.963998 -1.647143 0
M  V30 22 H -3.060705 -1.873205 -0.159930 0
M  V30 23 H 0.553966 2.824893 -1.860251 0
M  V30 END ATOM
M  V30 BEGIN BOND
M  V30 1 1 1 2
M  V30 2 2 2 3
M  V30 3 1 2 4
M  V30 4 1 4 5
M  V30 5 1 5 6
M  V30 6 1 6 7
M  V30 7 1 7 8
M  V30 8 2 8 9
M  V30 9 1 8 10
M  V30 10 1 5 11
M  V30 11 2 11 12
M  V30 12 1 11 13
M  V30 13 1 1 14
M  V30 14 1 1 15
M  V30 15 1 4 16
M  V30 16 1 5 17 CFG=1
M  V30 17 1 6 18
M  V30 18 1 6 19
M  V30 19 1 7 20
M  V30 20 1 7 21
M  V30 21 1 10 22
M  V30 22 1 13 23
M  V30 END BOND
M  V30 END CTAB
M  END
>  <Dataset>  (154) 
OralDrugs

>  <Ligand_Instance>  (154) 
nan

>  <PDB_ID>  (154) 
nan

>  <Standardized_SMILES>  (154) 
NC(=O)N[C@@H](CCC(=O)O)C(=O)O

>  <Name>  (154) 
Carglumic Acid

>  <Pocket>  (154) 
nan

>  <ATP_Site>  (154) 
nan

>  <Peripheral>  (154) 
nan

>  <Num_H_Atoms_ProtBoundConf>  (154) 
nan

>  <Num_Resolved_Atoms>  (154) 
nan

>  <Num_Not_Resolved_Atoms>  (154) 
nan

$$$$
CHEMBL2028019
     RDKit          3D

  0  0  0  0  0  0  0  0  0  0999 V3000
M  V30 BEGIN CTAB
M  V30 COUNTS 60 62 0 0 0
M  V30 BEGIN ATOM
M  V30 1 C 1.069292 -0.814980 6.396716 0
M  V30 2 N -0.133709 -0.618362 5.585399 0
M  V30 3 C -1.487194 -0.702310 6.131316 0
M  V30 4 C -0.148002 -0.328713 4.195197 0
M  V30 5 O -1.104953 -0.147191 3.436952 0
M  V30 6 N 1.141433 -0.231823 3.577176 0
M  V30 7 C 1.522335 0.040886 2.227923 0 CFG=1
M  V30 8 C 2.389832 1.254239 2.044308 0
M  V30 9 C 2.337513 1.610358 0.583176 0
M  V30 10 C 2.759101 0.498041 -0.324825 0 CFG=2
M  V30 11 C 2.573229 0.857048 -1.762699 0
M  V30 12 C 1.225468 1.193397 -2.244877 0
M  V30 13 N 0.207475 0.204517 -2.149667 0
M  V30 14 C -1.093699 0.700541 -2.610487 0
M  V30 15 C -2.081548 -0.153746 -1.797577 0
M  V30 16 N -1.811539 -1.544081 -2.136650 0
M  V30 17 C -2.750976 -2.549362 -1.778579 0
M  V30 18 C -3.286203 -3.274073 -2.843791 0
M  V30 19 C -4.217236 -4.274206 -2.539633 0
M  V30 20 C -4.601337 -4.545513 -1.242029 0
M  V30 21 C -4.060651 -3.819153 -0.210080 0
M  V30 22 Cl -4.564330 -4.182896 1.427450 0
M  V30 23 C -3.132774 -2.818279 -0.482168 0
M  V30 24 Cl -2.434300 -1.883622 0.821008 0
M  V30 25 C -0.616771 -1.958997 -2.830361 0
M  V30 26 C 0.439713 -0.943119 -3.012139 0
M  V30 27 C 2.376364 -0.866461 0.086847 0
M  V30 28 C 2.277969 -1.088981 1.566769 0
M  V30 29 H 0.845805 -1.371622 7.315304 0
M  V30 30 H 1.883440 -1.281001 5.804023 0
M  V30 31 H 1.405072 0.227410 6.639125 0
M  V30 32 H -2.043596 -1.583852 5.736354 0
M  V30 33 H -1.478465 -0.687273 7.240668 0
M  V30 34 H -2.081830 0.205677 5.829631 0
M  V30 35 H 2.086426 -0.345158 4.005568 0
M  V30 36 H 0.586288 0.212618 1.636217 0
M  V30 37 H 3.448171 0.979056 2.284124 0
M  V30 38 H 2.075783 2.133328 2.625376 0
M  V30 39 H 1.288652 1.895491 0.363910 0
M  V30 40 H 2.939069 2.529565 0.449012 0
M  V30 41 H 3.893706 0.508529 -0.218220 0
M  V30 42 H 3.217874 1.774171 -1.932396 0
M  V30 43 H 3.008712 0.108649 -2.457470 0
M  V30 44 H 0.831432 2.177959 -1.887452 0
M  V30 45 H 1.348240 1.383180 -3.354076 0
M  V30 46 H -1.228641 1.768373 -2.388665 0
M  V30 47 H -1.287148 0.466850 -3.674054 0
M  V30 48 H -3.076697 0.193762 -2.070198 0
M  V30 49 H -1.767935 0.085796 -0.747818 0
M  V30 50 H -3.002115 -3.083149 -3.876445 0
M  V30 51 H -4.644742 -4.851427 -3.375392 0
M  V30 52 H -5.334698 -5.338978 -1.054322 0
M  V30 53 H -0.940111 -2.452724 -3.771524 0
M  V30 54 H -0.179558 -2.794156 -2.209114 0
M  V30 55 H 0.383985 -0.555327 -4.058970 0
M  V30 56 H 1.478034 -1.345351 -2.897599 0
M  V30 57 H 3.040766 -1.662783 -0.309237 0
M  V30 58 H 1.369856 -1.103359 -0.315001 0
M  V30 59 H 1.800887 -2.049733 1.813984 0
M  V30 60 H 3.295508 -1.102645 2.004848 0
M  V30 END ATOM
M  V30 BEGIN BOND
M  V30 1 1 1 2
M  V30 2 1 2 3
M  V30 3 1 2 4
M  V30 4 2 4 5
M  V30 5 1 4 6
M  V30 6 1 6 7
M  V30 7 1 7 8
M  V30 8 1 8 9
M  V30 9 1 9 10
M  V30 10 1 10 11
M  V30 11 1 11 12
M  V30 12 1 12 13
M  V30 13 1 13 14
M  V30 14 1 14 15
M  V30 15 1 15 16
M  V30 16 1 16 17
M  V30 17 2 17 18
M  V30 18 1 18 19
M  V30 19 2 19 20
M  V30 20 1 20 21
M  V30 21 1 21 22
M  V30 22 2 21 23
M  V30 23 1 23 24
M  V30 24 1 16 25
M  V30 25 1 25 26
M  V30 26 1 10 27
M  V30 27 1 27 28
M  V30 28 1 28 7
M  V30 29 1 26 13
M  V30 30 1 23 17
M  V30 31 1 1 29
M  V30 32 1 1 30
M  V30 33 1 1 31
M  V30 34 1 3 32
M  V30 35 1 3 33
M  V30 36 1 3 34
M  V30 37 1 6 35
M  V30 38 1 7 36 CFG=3
M  V30 39 1 8 37
M  V30 40 1 8 38
M  V30 41 1 9 39
M  V30 42 1 9 40
M  V30 43 1 10 41 CFG=3
M  V30 44 1 11 42
M  V30 45 1 11 43
M  V30 46 1 12 44
M  V30 47 1 12 45
M  V30 48 1 14 46
M  V30 49 1 14 47
M  V30 50 1 15 48
M  V30 51 1 15 49
M  V30 52 1 18 50
M  V30 53 1 19 51
M  V30 54 1 20 52
M  V30 55 1 25 53
M  V30 56 1 25 54
M  V30 57 1 26 55
M  V30 58 1 26 56
M  V30 59 1 27 57
M  V30 60 1 27 58
M  V30 61 1 28 59
M  V30 62 1 28 60
M  V30 END BOND
M  V30 END CTAB
M  END
>  <Dataset>  (155) 
OralDrugs

>  <Ligand_Instance>  (155) 
nan

>  <PDB_ID>  (155) 
nan

>  <Standardized_SMILES>  (155) 
CN(C)C(=O)N[C@H]1CC[C@H](CCN2CCN(c3cccc(Cl)c3Cl)CC2)CC1

>  <Name>  (155) 
Cariprazine

>  <Pocket>  (155) 
nan

>  <ATP_Site>  (155) 
nan

>  <Peripheral>  (155) 
nan

>  <Num_H_Atoms_ProtBoundConf>  (155) 
nan

>  <Num_Resolved_Atoms>  (155) 
nan

>  <Num_Not_Resolved_Atoms>  (155) 
nan

$$$$
CHEMBL1201328
     RDKit          3D

  0  0  0  0  0  0  0  0  0  0999 V3000
M  V30 BEGIN CTAB
M  V30 COUNTS 61 64 0 0 0
M  V30 BEGIN ATOM
M  V30 1 C 4.040940 1.966293 5.190519 0
M  V30 2 C 3.855537 1.852792 3.676397 0
M  V30 3 C 4.424804 0.581563 3.160924 0
M  V30 4 O 5.671703 0.481652 3.278320 0
M  V30 5 C 3.683796 -0.511644 2.556508 0
M  V30 6 C 4.408998 -1.601859 2.130968 0
M  V30 7 C 3.725106 -2.657299 1.559213 0
M  V30 8 C 2.387198 -2.577567 1.440947 0
M  V30 9 C 1.555654 -1.554881 1.821555 0
M  V30 10 C 2.316673 -0.546755 2.382232 0
M  V30 11 N 0.138078 -1.487583 1.801312 0
M  V30 12 C -0.538837 -0.270177 2.161770 0
M  V30 13 C -0.295442 0.953416 1.359223 0
M  V30 14 C -0.527917 1.166074 -0.045309 0
M  V30 15 N -1.834157 1.134513 -0.584786 0
M  V30 16 C -2.446106 -0.127320 -0.633095 0
M  V30 17 C -3.325962 -0.317013 -1.866934 0
M  V30 18 N -2.498653 -0.348785 -3.018841 0
M  V30 19 C -1.876931 -1.602052 -3.289990 0
M  V30 20 C -2.855216 -2.681487 -3.699517 0
M  V30 21 O -3.554344 -2.322694 -4.864145 0
M  V30 22 C -1.566891 0.737346 -2.991043 0
M  V30 23 C -1.841554 1.743687 -1.902835 0
M  V30 24 C -0.579018 -2.628001 1.339659 0
M  V30 25 C -1.977265 -2.694674 1.408591 0
M  V30 26 C -2.779007 -3.748274 1.086324 0
M  V30 27 C -2.182175 -4.897272 0.638331 0
M  V30 28 C -0.821025 -4.937811 0.534070 0
M  V30 29 C -0.109406 -3.835295 0.878965 0
M  V30 30 S 1.651914 -4.011874 0.681239 0
M  V30 31 H 5.011601 1.511034 5.446173 0
M  V30 32 H 3.184969 1.455482 5.701031 0
M  V30 33 H 4.034647 3.038652 5.480659 0
M  V30 34 H 4.515510 2.677439 3.270546 0
M  V30 35 H 2.830112 2.055870 3.350242 0
M  V30 36 H 5.483566 -1.644247 2.235696 0
M  V30 37 H 4.327126 -3.491828 1.239672 0
M  V30 38 H 1.884663 0.345244 2.809122 0
M  V30 39 H -0.112451 0.093238 3.182350 0
M  V30 40 H -1.593003 -0.394268 2.481617 0
M  V30 41 H 0.649310 1.536414 1.637265 0
M  V30 42 H -1.054068 1.711280 1.877705 0
M  V30 43 H 0.098927 0.545013 -0.745683 0
M  V30 44 H -0.135557 2.212390 -0.324836 0
M  V30 45 H -1.657251 -0.900323 -0.725314 0
M  V30 46 H -3.135878 -0.254102 0.219736 0
M  V30 47 H -3.807362 -1.329090 -1.716464 0
M  V30 48 H -4.072688 0.483566 -1.849381 0
M  V30 49 H -1.353098 -2.001415 -2.396787 0
M  V30 50 H -1.111929 -1.538873 -4.078158 0
M  V30 51 H -3.504681 -3.031111 -2.892640 0
M  V30 52 H -2.232982 -3.565367 -4.010920 0
M  V30 53 H -3.959631 -1.422275 -4.697011 0
M  V30 54 H -0.570835 0.277717 -2.717683 0
M  V30 55 H -1.406317 1.207583 -3.961095 0
M  V30 56 H -2.870153 2.115058 -2.059913 0
M  V30 57 H -1.155451 2.602463 -1.985085 0
M  V30 58 H -2.555532 -1.853392 1.764378 0
M  V30 59 H -3.849091 -3.752692 1.154954 0
M  V30 60 H -2.780087 -5.755704 0.373288 0
M  V30 61 H -0.380695 -5.851386 0.181397 0
M  V30 END ATOM
M  V30 BEGIN BOND
M  V30 1 1 1 2
M  V30 2 1 2 3
M  V30 3 2 3 4
M  V30 4 1 3 5
M  V30 5 2 5 6
M  V30 6 1 6 7
M  V30 7 2 7 8
M  V30 8 1 8 9
M  V30 9 2 9 10
M  V30 10 1 9 11
M  V30 11 1 11 12
M  V30 12 1 12 13
M  V30 13 1 13 14
M  V30 14 1 14 15
M  V30 15 1 15 16
M  V30 16 1 16 17
M  V30 17 1 17 18
M  V30 18 1 18 19
M  V30 19 1 19 20
M  V30 20 1 20 21
M  V30 21 1 18 22
M  V30 22 1 22 23
M  V30 23 1 11 24
M  V30 24 2 24 25
M  V30 25 1 25 26
M  V30 26 2 26 27
M  V30 27 1 27 28
M  V30 28 2 28 29
M  V30 29 1 29 30
M  V30 30 1 10 5
M  V30 31 1 23 15
M  V30 32 1 29 24
M  V30 33 1 30 8
M  V30 34 1 1 31
M  V30 35 1 1 32
M  V30 36 1 1 33
M  V30 37 1 2 34
M  V30 38 1 2 35
M  V30 39 1 6 36
M  V30 40 1 7 37
M  V30 41 1 10 38
M  V30 42 1 12 39
M  V30 43 1 12 40
M  V30 44 1 13 41
M  V30 45 1 13 42
M  V30 46 1 14 43
M  V30 47 1 14 44
M  V30 48 1 16 45
M  V30 49 1 16 46
M  V30 50 1 17 47
M  V30 51 1 17 48
M  V30 52 1 19 49
M  V30 53 1 19 50
M  V30 54 1 20 51
M  V30 55 1 20 52
M  V30 56 1 21 53
M  V30 57 1 22 54
M  V30 58 1 22 55
M  V30 59 1 23 56
M  V30 60 1 23 57
M  V30 61 1 25 58
M  V30 62 1 26 59
M  V30 63 1 27 60
M  V30 64 1 28 61
M  V30 END BOND
M  V30 END CTAB
M  END
>  <Dataset>  (156) 
OralDrugs

>  <Ligand_Instance>  (156) 
nan

>  <PDB_ID>  (156) 
nan

>  <Standardized_SMILES>  (156) 
CCC(=O)c1ccc2c(c1)N(CCCN1CCN(CCO)CC1)c1ccccc1S2

>  <Name>  (156) 
Carphenazine

>  <Pocket>  (156) 
nan

>  <ATP_Site>  (156) 
nan

>  <Peripheral>  (156) 
nan

>  <Num_H_Atoms_ProtBoundConf>  (156) 
nan

>  <Num_Resolved_Atoms>  (156) 
nan

>  <Num_Not_Resolved_Atoms>  (156) 
nan

$$$$
CHEMBL1316
     RDKit          3D

  0  0  0  0  0  0  0  0  0  0999 V3000
M  V30 BEGIN CTAB
M  V30 COUNTS 31 33 0 0 0
M  V30 BEGIN ATOM
M  V30 1 C 0.026206 -3.907651 2.990590 0
M  V30 2 C 0.257920 -3.871692 1.492584 0
M  V30 3 C 1.715137 -4.192373 1.282964 0
M  V30 4 O 2.043862 -5.176410 0.580114 0
M  V30 5 O 2.700399 -3.408067 1.861163 0
M  V30 6 C 0.024434 -2.510843 0.959180 0
M  V30 7 C -0.859482 -2.345182 -0.085001 0
M  V30 8 C -1.076483 -1.075232 -0.580658 0
M  V30 9 C -0.401036 -0.016756 -0.013451 0
M  V30 10 C 0.491380 -0.177562 1.039527 0
M  V30 11 C 0.705380 -1.459802 1.534160 0
M  V30 12 N 0.965178 1.063358 1.340344 0
M  V30 13 C 0.402590 1.975995 0.518581 0
M  V30 14 C 0.543047 3.355746 0.410733 0
M  V30 15 C -0.180834 4.046742 -0.552541 0
M  V30 16 C -1.056164 3.408950 -1.430479 0
M  V30 17 Cl -1.952581 4.315217 -2.633191 0
M  V30 18 C -1.177495 2.034349 -1.301735 0
M  V30 19 C -0.459818 1.324566 -0.341904 0
M  V30 20 H -1.045986 -3.782517 3.243603 0
M  V30 21 H 0.556123 -3.048074 3.446680 0
M  V30 22 H 0.440084 -4.831752 3.427394 0
M  V30 23 H -0.352635 -4.637368 0.970542 0
M  V30 24 H 3.670368 -3.688511 1.787224 0
M  V30 25 H -1.363424 -3.196977 -0.496117 0
M  V30 26 H -1.775105 -0.970067 -1.400936 0
M  V30 27 H 1.407683 -1.527635 2.352067 0
M  V30 28 H 1.664236 1.249945 2.104324 0
M  V30 29 H 1.203111 3.879724 1.064378 0
M  V30 30 H -0.101437 5.132906 -0.673133 0
M  V30 31 H -1.860024 1.512659 -1.981541 0
M  V30 END ATOM
M  V30 BEGIN BOND
M  V30 1 1 1 2
M  V30 2 1 2 3
M  V30 3 2 3 4
M  V30 4 1 3 5
M  V30 5 1 2 6
M  V30 6 2 6 7
M  V30 7 1 7 8
M  V30 8 2 8 9
M  V30 9 1 9 10
M  V30 10 2 10 11
M  V30 11 1 10 12
M  V30 12 1 12 13
M  V30 13 2 13 14
M  V30 14 1 14 15
M  V30 15 2 15 16
M  V30 16 1 16 17
M  V30 17 1 16 18
M  V30 18 2 18 19
M  V30 19 1 11 6
M  V30 20 1 19 13
M  V30 21 1 19 9
M  V30 22 1 1 20
M  V30 23 1 1 21
M  V30 24 1 1 22
M  V30 25 1 2 23
M  V30 26 1 5 24
M  V30 27 1 7 25
M  V30 28 1 8 26
M  V30 29 1 11 27
M  V30 30 1 12 28
M  V30 31 1 14 29
M  V30 32 1 15 30
M  V30 33 1 18 31
M  V30 END BOND
M  V30 END CTAB
M  END
>  <Dataset>  (157) 
OralDrugs

>  <Ligand_Instance>  (157) 
nan

>  <PDB_ID>  (157) 
nan

>  <Standardized_SMILES>  (157) 
CC(C(=O)O)c1ccc2c(c1)[nH]c1ccc(Cl)cc12

>  <Name>  (157) 
Carprofen

>  <Pocket>  (157) 
nan

>  <ATP_Site>  (157) 
nan

>  <Peripheral>  (157) 
nan

>  <Num_H_Atoms_ProtBoundConf>  (157) 
nan

>  <Num_Resolved_Atoms>  (157) 
nan

>  <Num_Not_Resolved_Atoms>  (157) 
nan

$$$$
CHEMBL839
     RDKit          3D

  0  0  0  0  0  0  0  0  0  0999 V3000
M  V30 BEGIN CTAB
M  V30 COUNTS 45 46 0 0 0
M  V30 BEGIN ATOM
M  V30 1 C 1.273292 -3.267962 3.466383 0
M  V30 2 C 0.534426 -2.863508 2.236560 0
M  V30 3 C -0.867517 -2.444810 2.693994 0
M  V30 4 C 0.352792 -4.023903 1.304049 0
M  V30 5 N 1.102869 -1.739123 1.528955 0
M  V30 6 C 2.435627 -1.969200 1.085545 0
M  V30 7 C 3.076351 -0.820507 0.364898 0
M  V30 8 O 4.378245 -1.291427 0.025143 0
M  V30 9 C 2.406710 -0.376949 -0.879858 0
M  V30 10 O 1.117743 0.139779 -0.764434 0
M  V30 11 C 0.640347 1.216690 -0.115457 0
M  V30 12 C 1.210252 2.202576 0.654087 0
M  V30 13 C 0.573533 3.258245 1.259857 0
M  V30 14 C -0.786068 3.335528 1.073700 0
M  V30 15 C -1.445582 2.389817 0.315147 0
M  V30 16 C -0.747659 1.343456 -0.273026 0
M  V30 17 C -1.580013 0.384489 -1.063179 0
M  V30 18 C -2.771206 1.034322 -1.706644 0
M  V30 19 C -3.590882 1.635237 -0.595486 0
M  V30 20 O -4.795490 1.405852 -0.297938 0
M  V30 21 N -2.847168 2.587257 0.193435 0
M  V30 22 H 1.067144 -2.535655 4.284605 0
M  V30 23 H 0.820222 -4.226423 3.809938 0
M  V30 24 H 2.341623 -3.480004 3.341911 0
M  V30 25 H -0.742926 -1.667499 3.484839 0
M  V30 26 H -1.326662 -1.957779 1.823311 0
M  V30 27 H -1.439742 -3.299009 3.072758 0
M  V30 28 H 1.234467 -4.666257 1.180231 0
M  V30 29 H -0.523292 -4.642829 1.632641 0
M  V30 30 H 0.067513 -3.594951 0.302215 0
M  V30 31 H 0.432927 -1.510693 0.757633 0
M  V30 32 H 3.063392 -2.128550 1.995504 0
M  V30 33 H 2.489954 -2.909832 0.515032 0
M  V30 34 H 3.265553 0.020527 1.047371 0
M  V30 35 H 4.873928 -1.454433 0.875418 0
M  V30 36 H 3.027661 0.474048 -1.303209 0
M  V30 37 H 2.437396 -1.135011 -1.696960 0
M  V30 38 H 2.273265 2.108337 0.765613 0
M  V30 39 H 1.171445 3.950693 1.835452 0
M  V30 40 H -1.288384 4.175187 1.556181 0
M  V30 41 H -1.974612 -0.353418 -0.324063 0
M  V30 42 H -0.938821 -0.143366 -1.802947 0
M  V30 43 H -3.337398 0.223291 -2.208933 0
M  V30 44 H -2.497816 1.846424 -2.391440 0
M  V30 45 H -3.338605 3.398339 0.661315 0
M  V30 END ATOM
M  V30 BEGIN BOND
M  V30 1 1 1 2
M  V30 2 1 2 3
M  V30 3 1 2 4
M  V30 4 1 2 5
M  V30 5 1 5 6
M  V30 6 1 6 7
M  V30 7 1 7 8
M  V30 8 1 7 9
M  V30 9 1 9 10
M  V30 10 1 10 11
M  V30 11 2 11 12
M  V30 12 1 12 13
M  V30 13 2 13 14
M  V30 14 1 14 15
M  V30 15 2 15 16
M  V30 16 1 16 17
M  V30 17 1 17 18
M  V30 18 1 18 19
M  V30 19 2 19 20
M  V30 20 1 19 21
M  V30 21 1 16 11
M  V30 22 1 21 15
M  V30 23 1 1 22
M  V30 24 1 1 23
M  V30 25 1 1 24
M  V30 26 1 3 25
M  V30 27 1 3 26
M  V30 28 1 3 27
M  V30 29 1 4 28
M  V30 30 1 4 29
M  V30 31 1 4 30
M  V30 32 1 5 31
M  V30 33 1 6 32
M  V30 34 1 6 33
M  V30 35 1 7 34
M  V30 36 1 8 35
M  V30 37 1 9 36
M  V30 38 1 9 37
M  V30 39 1 12 38
M  V30 40 1 13 39
M  V30 41 1 14 40
M  V30 42 1 17 41
M  V30 43 1 17 42
M  V30 44 1 18 43
M  V30 45 1 18 44
M  V30 46 1 21 45
M  V30 END BOND
M  V30 END CTAB
M  END
>  <Dataset>  (158) 
OralDrugs

>  <Ligand_Instance>  (158) 
nan

>  <PDB_ID>  (158) 
nan

>  <Standardized_SMILES>  (158) 
CC(C)(C)NCC(O)COc1cccc2c1CCC(=O)N2

>  <Name>  (158) 
Carteolol

>  <Pocket>  (158) 
nan

>  <ATP_Site>  (158) 
nan

>  <Peripheral>  (158) 
nan

>  <Num_H_Atoms_ProtBoundConf>  (158) 
nan

>  <Num_Resolved_Atoms>  (158) 
nan

>  <Num_Not_Resolved_Atoms>  (158) 
nan

$$$$
CHEMBL723
     RDKit          3D

  0  0  0  0  0  0  0  0  0  0999 V3000
M  V30 BEGIN CTAB
M  V30 COUNTS 56 59 0 0 0
M  V30 BEGIN ATOM
M  V30 1 C 1.109930 -1.247041 4.897095 0
M  V30 2 O 1.471376 -0.526770 3.768446 0
M  V30 3 C 2.269639 -0.951672 2.721569 0
M  V30 4 C 2.792951 -2.227219 2.734663 0
M  V30 5 C 3.592557 -2.674119 1.703983 0
M  V30 6 C 3.887228 -1.843160 0.627618 0
M  V30 7 C 3.332142 -0.595827 0.686487 0
M  V30 8 C 2.526769 -0.062619 1.666334 0
M  V30 9 O 1.969507 1.148762 1.757469 0
M  V30 10 C 1.956911 2.279543 0.986404 0
M  V30 11 C 1.367287 2.154394 -0.349899 0
M  V30 12 N -0.009824 1.766860 -0.455459 0
M  V30 13 C -0.937203 2.707015 0.024318 0
M  V30 14 C -2.370810 2.354017 -0.215102 0
M  V30 15 O -3.101976 3.446442 0.377811 0
M  V30 16 C -2.879722 1.146374 0.482846 0
M  V30 17 O -2.410792 -0.092155 0.109365 0
M  V30 18 C -2.573152 -0.669089 -1.105618 0
M  V30 19 C -3.177035 -0.334487 -2.285634 0
M  V30 20 C -3.236595 -1.073854 -3.440773 0
M  V30 21 C -2.621937 -2.293628 -3.419037 0
M  V30 22 C -1.992106 -2.713630 -2.279807 0
M  V30 23 N -1.357322 -3.886260 -2.115284 0
M  V30 24 C -0.882057 -3.922577 -0.862900 0
M  V30 25 C -0.169984 -4.891374 -0.188683 0
M  V30 26 C 0.207668 -4.689177 1.143848 0
M  V30 27 C -0.173282 -3.489682 1.710977 0
M  V30 28 C -0.885412 -2.500328 1.064051 0
M  V30 29 C -1.239597 -2.739789 -0.253387 0
M  V30 30 C -1.954125 -1.929677 -1.124041 0
M  V30 31 H 1.085038 -2.325258 4.651585 0
M  V30 32 H 0.069199 -1.011576 5.257844 0
M  V30 33 H 1.837365 -1.160487 5.735117 0
M  V30 34 H 2.631702 -2.952962 3.516698 0
M  V30 35 H 4.012240 -3.668882 1.697279 0
M  V30 36 H 4.503092 -2.196532 -0.160449 0
M  V30 37 H 3.576239 0.042021 -0.150892 0
M  V30 38 H 1.586493 3.187015 1.529266 0
M  V30 39 H 3.054145 2.550408 0.817302 0
M  V30 40 H 1.490118 3.163148 -0.860012 0
M  V30 41 H 1.953173 1.473785 -0.989858 0
M  V30 42 H -0.211824 1.461173 -1.429895 0
M  V30 43 H -0.767148 3.664658 -0.551781 0
M  V30 44 H -0.830575 3.003364 1.075110 0
M  V30 45 H -2.644784 2.333258 -1.273607 0
M  V30 46 H -2.896215 3.336352 1.344107 0
M  V30 47 H -4.008862 1.157986 0.298920 0
M  V30 48 H -2.860276 1.288017 1.614290 0
M  V30 49 H -3.677024 0.617486 -2.286366 0
M  V30 50 H -3.749682 -0.675837 -4.289520 0
M  V30 51 H -2.665746 -2.881371 -4.328778 0
M  V30 52 H -1.224773 -4.660635 -2.793252 0
M  V30 53 H 0.108969 -5.823848 -0.670162 0
M  V30 54 H 0.768609 -5.432095 1.704017 0
M  V30 55 H 0.131444 -3.367743 2.739077 0
M  V30 56 H -1.158446 -1.576584 1.559145 0
M  V30 END ATOM
M  V30 BEGIN BOND
M  V30 1 1 1 2
M  V30 2 1 2 3
M  V30 3 2 3 4
M  V30 4 1 4 5
M  V30 5 2 5 6
M  V30 6 1 6 7
M  V30 7 2 7 8
M  V30 8 1 8 9
M  V30 9 1 9 10
M  V30 10 1 10 11
M  V30 11 1 11 12
M  V30 12 1 12 13
M  V30 13 1 13 14
M  V30 14 1 14 15
M  V30 15 1 14 16
M  V30 16 1 16 17
M  V30 17 1 17 18
M  V30 18 2 18 19
M  V30 19 1 19 20
M  V30 20 2 20 21
M  V30 21 1 21 22
M  V30 22 1 22 23
M  V30 23 1 23 24
M  V30 24 2 24 25
M  V30 25 1 25 26
M  V30 26 2 26 27
M  V30 27 1 27 28
M  V30 28 2 28 29
M  V30 29 1 29 30
M  V30 30 1 8 3
M  V30 31 1 30 18
M  V30 32 2 30 22
M  V30 33 1 29 24
M  V30 34 1 1 31
M  V30 35 1 1 32
M  V30 36 1 1 33
M  V30 37 1 4 34
M  V30 38 1 5 35
M  V30 39 1 6 36
M  V30 40 1 7 37
M  V30 41 1 10 38
M  V30 42 1 10 39
M  V30 43 1 11 40
M  V30 44 1 11 41
M  V30 45 1 12 42
M  V30 46 1 13 43
M  V30 47 1 13 44
M  V30 48 1 14 45
M  V30 49 1 15 46
M  V30 50 1 16 47
M  V30 51 1 16 48
M  V30 52 1 19 49
M  V30 53 1 20 50
M  V30 54 1 21 51
M  V30 55 1 23 52
M  V30 56 1 25 53
M  V30 57 1 26 54
M  V30 58 1 27 55
M  V30 59 1 28 56
M  V30 END BOND
M  V30 END CTAB
M  END
>  <Dataset>  (159) 
OralDrugs

>  <Ligand_Instance>  (159) 
nan

>  <PDB_ID>  (159) 
nan

>  <Standardized_SMILES>  (159) 
COc1ccccc1OCCNCC(O)COc1cccc2[nH]c3ccccc3c12

>  <Name>  (159) 
Carvedilol

>  <Pocket>  (159) 
nan

>  <ATP_Site>  (159) 
nan

>  <Peripheral>  (159) 
nan

>  <Num_H_Atoms_ProtBoundConf>  (159) 
nan

>  <Num_Resolved_Atoms>  (159) 
nan

>  <Num_Not_Resolved_Atoms>  (159) 
nan

$$$$
CHEMBL3237547
     RDKit          3D

  0  0  0  0  0  0  0  0  0  0999 V3000
M  V30 BEGIN CTAB
M  V30 COUNTS 32 33 0 0 0
M  V30 BEGIN ATOM
M  V30 1 O 2.326121 -0.948915 1.102300 0
M  V30 2 C 1.378792 -1.703000 1.400190 0
M  V30 3 N 1.484651 -2.696271 2.418913 0
M  V30 4 C 0.275326 -3.092421 3.098673 0 CFG=2
M  V30 5 O 0.441696 -4.364590 3.690207 0
M  V30 6 C -0.953964 -3.082225 2.258304 0
M  V30 7 C -0.753183 -2.763889 0.815893 0
M  V30 8 N 0.117163 -1.605536 0.721257 0
M  V30 9 C -0.244339 -0.440894 0.004481 0 CFG=2
M  V30 10 O 0.571075 -0.157272 -1.082235 0
M  V30 11 C 0.378530 1.167512 -1.410387 0 CFG=2
M  V30 12 C 1.767412 1.788477 -1.447772 0
M  V30 13 O 1.771441 3.122431 -1.762591 0
M  V30 14 C -0.526225 1.792904 -0.395031 0 CFG=1
M  V30 15 O -1.841816 1.571701 -0.792031 0
M  V30 16 C -0.315876 0.835527 0.788716 0
M  V30 17 F -1.375637 0.875024 1.649630 0
M  V30 18 F 0.837199 1.145400 1.449472 0
M  V30 19 H 2.424285 -3.096731 2.633641 0
M  V30 20 H 0.123856 -2.387321 3.944108 0
M  V30 21 H -0.268132 -4.424003 4.386262 0
M  V30 22 H -1.458871 -4.088115 2.289607 0
M  V30 23 H -1.752469 -2.388162 2.647640 0
M  V30 24 H -0.324894 -3.648843 0.301028 0
M  V30 25 H -1.730061 -2.514205 0.364430 0
M  V30 26 H -1.264641 -0.595263 -0.437440 0
M  V30 27 H -0.100764 1.314611 -2.412200 0
M  V30 28 H 2.323647 1.216851 -2.231573 0
M  V30 29 H 2.274668 1.616204 -0.489502 0
M  V30 30 H 0.874659 3.493388 -1.871558 0
M  V30 31 H -0.306095 2.829245 -0.145647 0
M  V30 32 H -2.455668 1.884081 -0.079412 0
M  V30 END ATOM
M  V30 BEGIN BOND
M  V30 1 2 1 2
M  V30 2 1 2 3
M  V30 3 1 3 4
M  V30 4 1 4 5
M  V30 5 1 4 6
M  V30 6 1 6 7
M  V30 7 1 7 8
M  V30 8 1 8 9
M  V30 9 1 9 10
M  V30 10 1 10 11
M  V30 11 1 11 12
M  V30 12 1 12 13
M  V30 13 1 11 14
M  V30 14 1 14 15
M  V30 15 1 14 16
M  V30 16 1 16 17
M  V30 17 1 16 18
M  V30 18 1 8 2
M  V30 19 1 16 9
M  V30 20 1 3 19
M  V30 21 1 4 20 CFG=1
M  V30 22 1 5 21
M  V30 23 1 6 22
M  V30 24 1 6 23
M  V30 25 1 7 24
M  V30 26 1 7 25
M  V30 27 1 9 26 CFG=3
M  V30 28 1 11 27 CFG=3
M  V30 29 1 12 28
M  V30 30 1 12 29
M  V30 31 1 13 30
M  V30 32 1 14 31 CFG=1
M  V30 33 1 15 32
M  V30 END BOND
M  V30 END CTAB
M  END
>  <Dataset>  (160) 
OralDrugs

>  <Ligand_Instance>  (160) 
nan

>  <PDB_ID>  (160) 
nan

>  <Standardized_SMILES>  (160) 
O=C1N[C@H](O)CCN1[C@@H]1O[C@H](CO)[C@@H](O)C1(F)F

>  <Name>  (160) 
Cedazuridine

>  <Pocket>  (160) 
nan

>  <ATP_Site>  (160) 
nan

>  <Peripheral>  (160) 
nan

>  <Num_H_Atoms_ProtBoundConf>  (160) 
nan

>  <Num_Resolved_Atoms>  (160) 
nan

>  <Num_Not_Resolved_Atoms>  (160) 
nan

$$$$
CHEMBL1201018
     RDKit          3D

  0  0  0  0  0  0  0  0  0  0999 V3000
M  V30 BEGIN CTAB
M  V30 COUNTS 38 40 0 0 0
M  V30 BEGIN ATOM
M  V30 1 N -4.218963 -1.459809 0.284850 0
M  V30 2 C -2.854570 -1.005446 0.123050 0 CFG=1
M  V30 3 C -2.318195 -0.400306 1.369649 0
M  V30 4 O -2.999700 -0.310025 2.423747 0
M  V30 5 N -0.981383 0.064941 1.274200 0
M  V30 6 C -0.251107 0.686373 2.349582 0 CFG=2
M  V30 7 C 0.268494 1.983269 1.859462 0
M  V30 8 O -0.422512 3.023504 1.654595 0
M  V30 9 N 1.575281 1.539365 1.774919 0
M  V30 10 C 2.874226 1.799875 1.325535 0
M  V30 11 C 3.317150 3.194755 1.100083 0
M  V30 12 O 2.519284 4.137236 1.315112 0
M  V30 13 O 4.601186 3.466303 0.655116 0
M  V30 14 C 3.726526 0.819273 1.094371 0
M  V30 15 Cl 5.340793 1.178078 0.534380 0
M  V30 16 C 3.477199 -0.609549 1.255771 0
M  V30 17 S 1.781299 -1.072088 1.568846 0
M  V30 18 C 1.175992 0.354407 2.493166 0 CFG=2
M  V30 19 C -1.930539 -2.088846 -0.299571 0
M  V30 20 C -0.996800 -1.872857 -1.319858 0
M  V30 21 C -0.121474 -2.867084 -1.734757 0
M  V30 22 C -0.164533 -4.119265 -1.125541 0
M  V30 23 C -1.113038 -4.279502 -0.115896 0
M  V30 24 C -1.993465 -3.311265 0.315806 0
M  V30 25 H -4.457289 -1.714044 1.249288 0
M  V30 26 H -4.908696 -0.719523 -0.015381 0
M  V30 27 H -2.885543 -0.270906 -0.712989 0
M  V30 28 H -0.407177 -0.012123 0.383015 0
M  V30 29 H -0.785609 0.802247 3.311762 0
M  V30 30 H 4.769610 4.257311 0.034377 0
M  V30 31 H 3.835289 -1.134430 0.329292 0
M  V30 32 H 4.179958 -0.970110 2.053632 0
M  V30 33 H 1.537460 0.430983 3.535696 0
M  V30 34 H -0.959426 -0.908261 -1.793307 0
M  V30 35 H 0.597454 -2.687024 -2.526534 0
M  V30 36 H 0.487605 -4.931844 -1.402141 0
M  V30 37 H -1.139034 -5.252271 0.350044 0
M  V30 38 H -2.681034 -3.562478 1.108808 0
M  V30 END ATOM
M  V30 BEGIN BOND
M  V30 1 1 1 2
M  V30 2 1 2 3
M  V30 3 2 3 4
M  V30 4 1 3 5
M  V30 5 1 5 6
M  V30 6 1 6 7
M  V30 7 2 7 8
M  V30 8 1 7 9
M  V30 9 1 9 10
M  V30 10 1 10 11
M  V30 11 2 11 12
M  V30 12 1 11 13
M  V30 13 2 10 14
M  V30 14 1 14 15
M  V30 15 1 14 16
M  V30 16 1 16 17
M  V30 17 1 17 18
M  V30 18 1 2 19
M  V30 19 2 19 20
M  V30 20 1 20 21
M  V30 21 2 21 22
M  V30 22 1 22 23
M  V30 23 2 23 24
M  V30 24 1 18 6
M  V30 25 1 24 19
M  V30 26 1 18 9
M  V30 27 1 1 25
M  V30 28 1 1 26
M  V30 29 1 2 27 CFG=3
M  V30 30 1 5 28
M  V30 31 1 6 29 CFG=1
M  V30 32 1 13 30
M  V30 33 1 16 31
M  V30 34 1 16 32
M  V30 35 1 18 33 CFG=1
M  V30 36 1 20 34
M  V30 37 1 21 35
M  V30 38 1 22 36
M  V30 39 1 23 37
M  V30 40 1 24 38
M  V30 END BOND
M  V30 END CTAB
M  END
>  <Dataset>  (161) 
OralDrugs

>  <Ligand_Instance>  (161) 
nan

>  <PDB_ID>  (161) 
nan

>  <Standardized_SMILES>  (161) 
N[C@@H](C(=O)N[C@@H]1C(=O)N2C(C(=O)O)=C(Cl)CS[C@H]12)c1ccccc1

>  <Name>  (161) 
Cefaclor

>  <Pocket>  (161) 
nan

>  <ATP_Site>  (161) 
nan

>  <Peripheral>  (161) 
nan

>  <Num_H_Atoms_ProtBoundConf>  (161) 
nan

>  <Num_Resolved_Atoms>  (161) 
nan

>  <Num_Not_Resolved_Atoms>  (161) 
nan

$$$$
CHEMBL1644
     RDKit          3D

  0  0  0  0  0  0  0  0  0  0999 V3000
M  V30 BEGIN CTAB
M  V30 COUNTS 42 44 0 0 0
M  V30 BEGIN ATOM
M  V30 1 C 2.892817 -5.132886 0.588743 0
M  V30 2 C 2.489851 -3.722409 0.814889 0
M  V30 3 C 3.304747 -2.803878 1.293833 0
M  V30 4 C 4.667142 -3.188651 1.617483 0
M  V30 5 O 5.521075 -2.395335 2.076300 0
M  V30 6 O 5.875600 -3.809838 1.835337 0
M  V30 7 N 2.889596 -1.466547 1.498380 0
M  V30 8 C 3.165318 -0.082149 1.467636 0
M  V30 9 O 4.205092 0.612428 1.200157 0
M  V30 10 C 1.802971 0.267302 1.860321 0 CFG=1
M  V30 11 N 0.989351 0.947306 0.881154 0
M  V30 12 C 0.313326 2.106091 1.303321 0
M  V30 13 O 0.417645 2.532016 2.496705 0
M  V30 14 C -0.537090 2.822344 0.291353 0 CFG=2
M  V30 15 N -1.115101 3.976467 0.992403 0
M  V30 16 C -1.695620 1.967356 -0.094005 0
M  V30 17 C -1.869910 1.375244 -1.347217 0
M  V30 18 C -3.004600 0.598361 -1.568547 0
M  V30 19 C -3.973940 0.377613 -0.615416 0
M  V30 20 O -5.069972 -0.395517 -0.887797 0
M  V30 21 C -3.807884 0.962410 0.631863 0
M  V30 22 C -2.675704 1.737661 0.852935 0
M  V30 23 C 1.549675 -1.189260 1.966665 0 CFG=1
M  V30 24 S 0.475976 -1.878675 0.648120 0
M  V30 25 C 1.074817 -3.571795 0.413983 0
M  V30 26 H 2.166686 -5.846713 1.077216 0
M  V30 27 H 2.970325 -5.366672 -0.507018 0
M  V30 28 H 3.870111 -5.396263 1.013620 0
M  V30 29 H 6.013495 -4.804347 1.905863 0
M  V30 30 H 1.816256 0.733062 2.868922 0
M  V30 31 H 0.966997 0.521059 -0.071678 0
M  V30 32 H 0.024275 3.171738 -0.575509 0
M  V30 33 H -2.056530 4.196594 0.562392 0
M  V30 34 H -1.251684 3.723501 2.011732 0
M  V30 35 H -1.104449 1.559302 -2.074769 0
M  V30 36 H -3.065625 0.171052 -2.574674 0
M  V30 37 H -5.916868 -0.359486 -0.331166 0
M  V30 38 H -4.542205 0.820543 1.419282 0
M  V30 39 H -2.589284 2.171357 1.835642 0
M  V30 40 H 1.302782 -1.591197 2.962502 0
M  V30 41 H 0.925323 -3.832995 -0.669747 0
M  V30 42 H 0.450108 -4.308739 0.960508 0
M  V30 END ATOM
M  V30 BEGIN BOND
M  V30 1 1 1 2
M  V30 2 2 2 3
M  V30 3 1 3 4
M  V30 4 2 4 5
M  V30 5 1 4 6
M  V30 6 1 3 7
M  V30 7 1 7 8
M  V30 8 2 8 9
M  V30 9 1 8 10
M  V30 10 1 10 11
M  V30 11 1 11 12
M  V30 12 2 12 13
M  V30 13 1 12 14
M  V30 14 1 14 15
M  V30 15 1 14 16
M  V30 16 2 16 17
M  V30 17 1 17 18
M  V30 18 2 18 19
M  V30 19 1 19 20
M  V30 20 1 19 21
M  V30 21 2 21 22
M  V30 22 1 10 23
M  V30 23 1 23 24
M  V30 24 1 24 25
M  V30 25 1 25 2
M  V30 26 1 23 7
M  V30 27 1 22 16
M  V30 28 1 1 26
M  V30 29 1 1 27
M  V30 30 1 1 28
M  V30 31 1 6 29
M  V30 32 1 10 30 CFG=1
M  V30 33 1 11 31
M  V30 34 1 14 32 CFG=3
M  V30 35 1 15 33
M  V30 36 1 15 34
M  V30 37 1 17 35
M  V30 38 1 18 36
M  V30 39 1 20 37
M  V30 40 1 21 38
M  V30 41 1 22 39
M  V30 42 1 23 40 CFG=1
M  V30 43 1 25 41
M  V30 44 1 25 42
M  V30 END BOND
M  V30 END CTAB
M  END
>  <Dataset>  (162) 
OralDrugs

>  <Ligand_Instance>  (162) 
nan

>  <PDB_ID>  (162) 
nan

>  <Standardized_SMILES>  (162) 
CC1=C(C(=O)O)N2C(=O)[C@@H](NC(=O)[C@H](N)c3ccc(O)cc3)[C@H]2SC1

>  <Name>  (162) 
Cefadroxil

>  <Pocket>  (162) 
nan

>  <ATP_Site>  (162) 
nan

>  <Peripheral>  (162) 
nan

>  <Num_H_Atoms_ProtBoundConf>  (162) 
nan

>  <Num_Resolved_Atoms>  (162) 
nan

>  <Num_Not_Resolved_Atoms>  (162) 
nan

$$$$
CHEMBL927
     RDKit          3D

  0  0  0  0  0  0  0  0  0  0999 V3000
M  V30 BEGIN CTAB
M  V30 COUNTS 39 41 0 0 0
M  V30 BEGIN ATOM
M  V30 1 C 2.464510 -3.378803 4.946624 0
M  V30 2 C 2.242035 -2.574852 3.946970 0
M  V30 3 C 1.949365 -1.618577 2.893630 0
M  V30 4 C 2.366610 -1.926958 1.680035 0
M  V30 5 C 3.086603 -3.155311 1.376360 0
M  V30 6 O 3.452879 -4.114070 2.093692 0
M  V30 7 O 3.515863 -3.467466 0.098963 0
M  V30 8 N 2.113095 -1.018173 0.618205 0
M  V30 9 C 1.830412 -0.956694 -0.775562 0
M  V30 10 O 1.805281 -1.697227 -1.792093 0
M  V30 11 C 1.528939 0.458754 -0.648374 0 CFG=1
M  V30 12 N 0.150487 0.784898 -0.783493 0
M  V30 13 C -0.522106 1.796531 -1.488347 0
M  V30 14 O 0.287551 2.554520 -2.117489 0
M  V30 15 C -1.945344 2.058418 -1.574733 0
M  V30 16 N -2.349770 3.056709 -2.286239 0
M  V30 17 O -1.468711 3.879924 -2.965099 0
M  V30 18 C -2.857781 1.197774 -0.870205 0
M  V30 19 C -4.338152 1.546514 -1.020960 0
M  V30 20 S -5.160149 0.230291 0.009405 0
M  V30 21 C -3.474156 -0.517949 0.439850 0
M  V30 22 N -3.340303 -1.658855 1.270058 0
M  V30 23 N -2.749903 0.146860 -0.102861 0
M  V30 24 C 2.081746 0.423300 0.747866 0 CFG=1
M  V30 25 S 0.902367 0.786621 2.055870 0
M  V30 26 C 1.204908 -0.419629 3.351779 0
M  V30 27 H 3.006359 -4.325453 4.767771 0
M  V30 28 H 3.005140 -4.326926 4.777413 0
M  V30 29 H 1.890889 -2.312629 4.971157 0
M  V30 30 H 3.477552 -4.397667 -0.323286 0
M  V30 31 H 2.238481 1.069522 -1.270880 0
M  V30 32 H -0.430879 0.116946 -0.235334 0
M  V30 33 H -1.132874 4.697446 -2.442491 0
M  V30 34 H -4.859429 2.416548 -1.624811 0
M  V30 35 H -2.889067 -1.715208 2.215125 0
M  V30 36 H -3.736109 -2.561000 0.904604 0
M  V30 37 H 3.084927 0.890884 0.898923 0
M  V30 38 H 1.874036 0.083693 4.097300 0
M  V30 39 H 0.281661 -0.693511 3.906770 0
M  V30 END ATOM
M  V30 BEGIN BOND
M  V30 1 2 1 2
M  V30 2 1 2 3
M  V30 3 2 3 4
M  V30 4 1 4 5
M  V30 5 2 5 6
M  V30 6 1 5 7
M  V30 7 1 4 8
M  V30 8 1 8 9
M  V30 9 2 9 10
M  V30 10 1 9 11
M  V30 11 1 11 12
M  V30 12 1 12 13
M  V30 13 2 13 14
M  V30 14 1 13 15
M  V30 15 2 15 16
M  V30 16 1 16 17
M  V30 17 1 15 18
M  V30 18 2 18 19
M  V30 19 1 19 20
M  V30 20 1 20 21
M  V30 21 1 21 22
M  V30 22 2 21 23
M  V30 23 1 11 24
M  V30 24 1 24 25
M  V30 25 1 25 26
M  V30 26 1 26 3
M  V30 27 1 24 8
M  V30 28 1 23 18
M  V30 29 1 1 27
M  V30 30 1 1 28
M  V30 31 1 2 29
M  V30 32 1 7 30
M  V30 33 1 11 31 CFG=3
M  V30 34 1 12 32
M  V30 35 1 17 33
M  V30 36 1 19 34
M  V30 37 1 22 35
M  V30 38 1 22 36
M  V30 39 1 24 37 CFG=3
M  V30 40 1 26 38
M  V30 41 1 26 39
M  V30 END BOND
M  V30 END CTAB
M  END
>  <Dataset>  (163) 
OralDrugs

>  <Ligand_Instance>  (163) 
nan

>  <PDB_ID>  (163) 
nan

>  <Standardized_SMILES>  (163) 
C=CC1=C(C(=O)O)N2C(=O)[C@@H](NC(=O)/C(=N\O)c3csc(N)n3)[C@H]2SC1

>  <Name>  (163) 
Cefdinir

>  <Pocket>  (163) 
nan

>  <ATP_Site>  (163) 
nan

>  <Peripheral>  (163) 
nan

>  <Num_H_Atoms_ProtBoundConf>  (163) 
nan

>  <Num_Resolved_Atoms>  (163) 
nan

>  <Num_Not_Resolved_Atoms>  (163) 
nan

$$$$
CHEMBL1541
     RDKit          3D

  0  0  0  0  0  0  0  0  0  0999 V3000
M  V30 BEGIN CTAB
M  V30 COUNTS 45 47 0 0 0
M  V30 BEGIN ATOM
M  V30 1 C 1.828269 -5.044755 2.266886 0
M  V30 2 C 2.492965 -3.902689 2.135089 0
M  V30 3 C 1.967809 -2.554356 2.272603 0
M  V30 4 C 2.829293 -1.594003 2.094077 0
M  V30 5 C 4.234405 -1.808775 1.776164 0
M  V30 6 O 5.117317 -0.935650 1.590437 0
M  V30 7 O 5.190715 -2.777493 1.548470 0
M  V30 8 N 2.451558 -0.237063 2.201282 0
M  V30 9 C 2.581652 1.124942 1.809914 0
M  V30 10 O 3.554399 1.812186 1.487166 0
M  V30 11 C 1.089906 1.228593 1.987507 0 CFG=1
M  V30 12 N 0.461022 0.642715 0.845351 0
M  V30 13 C -0.573334 1.272780 0.101927 0
M  V30 14 O -0.855694 2.415441 0.590330 0
M  V30 15 C -1.292898 0.795716 -1.067225 0
M  V30 16 N -2.211270 1.564194 -1.578652 0
M  V30 17 O -2.470183 2.805144 -0.993465 0
M  V30 18 C -3.647208 2.931286 -0.233484 0
M  V30 19 C -3.821175 4.302764 0.344516 0
M  V30 20 O -3.103209 5.332932 0.261918 0
M  V30 21 O -5.008220 4.367493 1.089622 0
M  V30 22 C -1.009348 -0.500960 -1.663620 0
M  V30 23 C -1.781714 -0.885306 -2.827640 0
M  V30 24 S -1.053322 -2.591694 -3.202606 0
M  V30 25 C 0.114542 -2.434276 -1.744188 0
M  V30 26 N 1.050376 -3.451386 -1.389256 0
M  V30 27 N -0.149411 -1.427305 -1.331665 0
M  V30 28 C 1.434514 0.241922 3.103874 0 CFG=1
M  V30 29 S 0.152125 -0.923667 3.509009 0
M  V30 30 C 0.549996 -2.414667 2.589920 0
M  V30 31 H 0.789664 -5.315473 2.495338 0
M  V30 32 H 0.785993 -5.108922 2.499059 0
M  V30 33 H 3.466750 -4.304904 1.911589 0
M  V30 34 H 5.699722 -3.282465 2.267058 0
M  V30 35 H 0.748048 2.213268 2.297977 0
M  V30 36 H 0.749512 -0.299453 0.506798 0
M  V30 37 H -4.553965 2.729686 -0.843731 0
M  V30 38 H -3.627440 2.153374 0.564030 0
M  V30 39 H -5.312154 5.203980 1.580375 0
M  V30 40 H -2.615348 -0.351728 -3.408830 0
M  V30 41 H 0.578379 -4.059409 -0.657116 0
M  V30 42 H 1.934732 -3.376536 -1.895963 0
M  V30 43 H 1.857956 0.760594 3.962552 0
M  V30 44 H 0.245599 -3.270595 3.227077 0
M  V30 45 H -0.042489 -2.418485 1.639671 0
M  V30 END ATOM
M  V30 BEGIN BOND
M  V30 1 2 1 2
M  V30 2 1 2 3
M  V30 3 2 3 4
M  V30 4 1 4 5
M  V30 5 2 5 6
M  V30 6 1 5 7
M  V30 7 1 4 8
M  V30 8 1 8 9
M  V30 9 2 9 10
M  V30 10 1 9 11
M  V30 11 1 11 12
M  V30 12 1 12 13
M  V30 13 2 13 14
M  V30 14 1 13 15
M  V30 15 2 15 16
M  V30 16 1 16 17
M  V30 17 1 17 18
M  V30 18 1 18 19
M  V30 19 2 19 20
M  V30 20 1 19 21
M  V30 21 1 15 22
M  V30 22 2 22 23
M  V30 23 1 23 24
M  V30 24 1 24 25
M  V30 25 1 25 26
M  V30 26 2 25 27
M  V30 27 1 11 28
M  V30 28 1 28 29
M  V30 29 1 29 30
M  V30 30 1 30 3
M  V30 31 1 28 8
M  V30 32 1 27 22
M  V30 33 1 1 31
M  V30 34 1 1 32
M  V30 35 1 2 33
M  V30 36 1 7 34
M  V30 37 1 11 35 CFG=1
M  V30 38 1 12 36
M  V30 39 1 18 37
M  V30 40 1 18 38
M  V30 41 1 21 39
M  V30 42 1 23 40
M  V30 43 1 26 41
M  V30 44 1 26 42
M  V30 45 1 28 43 CFG=1
M  V30 46 1 30 44
M  V30 47 1 30 45
M  V30 END BOND
M  V30 END CTAB
M  END
>  <Dataset>  (164) 
OralDrugs

>  <Ligand_Instance>  (164) 
nan

>  <PDB_ID>  (164) 
nan

>  <Standardized_SMILES>  (164) 
C=CC1=C(C(=O)O)N2C(=O)[C@@H](NC(=O)/C(=N\OCC(=O)O)c3csc(N)n3)[C@H]2SC1

>  <Name>  (164) 
Cefixime

>  <Pocket>  (164) 
nan

>  <ATP_Site>  (164) 
nan

>  <Peripheral>  (164) 
nan

>  <Num_H_Atoms_ProtBoundConf>  (164) 
nan

>  <Num_Resolved_Atoms>  (164) 
nan

>  <Num_Not_Resolved_Atoms>  (164) 
nan

$$$$
CHEMBL276568
     RDKit          3D

  0  0  0  0  0  0  0  0  0  0999 V3000
M  V30 BEGIN CTAB
M  V30 COUNTS 46 48 0 0 0
M  V30 BEGIN ATOM
M  V30 1 C -6.027819 3.517640 0.513772 0
M  V30 2 C -5.131837 2.390918 0.733003 0
M  V30 3 C -3.867262 2.284521 1.039989 0
M  V30 4 C -2.853278 1.291918 1.288413 0
M  V30 5 C -2.978230 -0.008928 1.261813 0
M  V30 6 C -4.276921 -0.582986 0.941935 0
M  V30 7 O -4.357105 -1.859018 0.913931 0
M  V30 8 O -5.445108 -1.227079 0.653400 0
M  V30 9 N -1.855150 -0.852894 1.582802 0
M  V30 10 C -1.078969 -1.985146 1.136195 0
M  V30 11 O -1.264864 -2.950824 0.316286 0
M  V30 12 C -0.002839 -1.496239 2.060478 0 CFG=1
M  V30 13 N 1.098893 -0.834671 1.446035 0
M  V30 14 C 2.449022 -1.245723 1.605282 0
M  V30 15 O 2.758693 -2.254581 2.325136 0
M  V30 16 C 3.658844 -0.637250 1.017618 0 CFG=2
M  V30 17 N 3.411550 0.500677 0.186836 0
M  V30 18 C 4.327762 -1.704011 0.210857 0
M  V30 19 C 3.904311 -2.051526 -1.049705 0
M  V30 20 C 4.576564 -3.050116 -1.731205 0
M  V30 21 C 5.651898 -3.716288 -1.209701 0
M  V30 22 O 6.349821 -4.717177 -1.855456 0
M  V30 23 C 6.108888 -3.393720 0.060163 0
M  V30 24 C 5.421848 -2.388137 0.730387 0
M  V30 25 C -1.021560 -0.707986 2.792461 0 CFG=1
M  V30 26 S -0.776881 1.042534 3.035243 0
M  V30 27 C -1.500828 1.838904 1.571218 0
M  V30 28 H -6.510478 3.488160 -0.488737 0
M  V30 29 H -5.537292 4.515665 0.671339 0
M  V30 30 H -6.855678 3.501027 1.273562 0
M  V30 31 H -5.573788 1.437078 0.626167 0
M  V30 32 H -3.568795 3.348020 1.110894 0
M  V30 33 H -6.351673 -0.761561 0.615256 0
M  V30 34 H 0.276971 -2.388619 2.696701 0
M  V30 35 H 0.958146 -0.002385 0.840272 0
M  V30 36 H 4.351450 -0.353701 1.848331 0
M  V30 37 H 4.323904 0.710782 -0.299619 0
M  V30 38 H 3.130656 1.344122 0.697114 0
M  V30 39 H 3.066414 -1.528951 -1.449591 0
M  V30 40 H 4.250795 -3.337587 -2.736396 0
M  V30 41 H 6.738465 -5.525760 -1.383259 0
M  V30 42 H 6.950746 -3.876357 0.536135 0
M  V30 43 H 5.774634 -2.130601 1.725797 0
M  V30 44 H -1.478648 -1.185660 3.683295 0
M  V30 45 H -1.490514 2.931006 1.649043 0
M  V30 46 H -0.846463 1.566040 0.694413 0
M  V30 END ATOM
M  V30 BEGIN BOND
M  V30 1 1 1 2
M  V30 2 2 2 3
M  V30 3 1 3 4
M  V30 4 2 4 5
M  V30 5 1 5 6
M  V30 6 2 6 7
M  V30 7 1 6 8
M  V30 8 1 5 9
M  V30 9 1 9 10
M  V30 10 2 10 11
M  V30 11 1 10 12
M  V30 12 1 12 13
M  V30 13 1 13 14
M  V30 14 2 14 15
M  V30 15 1 14 16
M  V30 16 1 16 17
M  V30 17 1 16 18
M  V30 18 2 18 19
M  V30 19 1 19 20
M  V30 20 2 20 21
M  V30 21 1 21 22
M  V30 22 1 21 23
M  V30 23 2 23 24
M  V30 24 1 12 25
M  V30 25 1 25 26
M  V30 26 1 26 27
M  V30 27 1 27 4
M  V30 28 1 25 9
M  V30 29 1 24 18
M  V30 30 1 1 28
M  V30 31 1 1 29
M  V30 32 1 1 30
M  V30 33 1 2 31
M  V30 34 1 3 32
M  V30 35 1 8 33
M  V30 36 1 12 34 CFG=1
M  V30 37 1 13 35
M  V30 38 1 16 36 CFG=1
M  V30 39 1 17 37
M  V30 40 1 17 38
M  V30 41 1 19 39
M  V30 42 1 20 40
M  V30 43 1 22 41
M  V30 44 1 23 42
M  V30 45 1 24 43
M  V30 46 1 25 44 CFG=1
M  V30 47 1 27 45
M  V30 48 1 27 46
M  V30 END BOND
M  V30 END CTAB
M  END
>  <Dataset>  (165) 
OralDrugs

>  <Ligand_Instance>  (165) 
nan

>  <PDB_ID>  (165) 
nan

>  <Standardized_SMILES>  (165) 
C/C=C/C1=C(C(=O)O)N2C(=O)[C@@H](NC(=O)[C@H](N)c3ccc(O)cc3)[C@H]2SC1

>  <Name>  (165) 
Cefprozil Anhydrous, (E)-

>  <Pocket>  (165) 
nan

>  <ATP_Site>  (165) 
nan

>  <Peripheral>  (165) 
nan

>  <Num_H_Atoms_ProtBoundConf>  (165) 
nan

>  <Num_Resolved_Atoms>  (165) 
nan

>  <Num_Not_Resolved_Atoms>  (165) 
nan

$$$$
CHEMBL1605
     RDKit          3D

  0  0  0  0  0  0  0  0  0  0999 V3000
M  V30 BEGIN CTAB
M  V30 COUNTS 41 43 0 0 0
M  V30 BEGIN ATOM
M  V30 1 N -3.536504 0.498053 5.105724 0
M  V30 2 C -3.230551 -0.669856 4.297645 0
M  V30 3 N -2.619426 -0.927085 3.352780 0
M  V30 4 C -2.484421 -2.093655 2.777712 0
M  V30 5 C -1.657755 -2.217527 1.583591 0
M  V30 6 C -1.442261 -3.284490 0.862310 0
M  V30 7 C -0.950073 -4.159389 -0.165655 0
M  V30 8 C -0.021596 -3.627902 -1.186202 0
M  V30 9 O 1.246358 -3.702883 -1.190557 0
M  V30 10 O -0.429386 -2.950955 -2.314840 0
M  V30 11 C -0.899503 -1.204980 0.953589 0
M  V30 12 O -1.237201 -0.247433 1.766800 0
M  V30 13 N -0.133596 -0.350018 0.253866 0
M  V30 14 C 0.194291 1.030387 0.327432 0 CFG=2
M  V30 15 C 0.692686 1.686580 -0.857622 0
M  V30 16 O 0.151110 2.170172 -1.905817 0
M  V30 17 N 2.062615 1.635756 -0.494612 0
M  V30 18 C 3.481318 1.670295 -0.668920 0
M  V30 19 C 3.871027 2.025870 -2.015037 0
M  V30 20 O 5.125186 2.076814 -2.278079 0
M  V30 21 O 4.254215 2.372408 -3.327139 0
M  V30 22 C 4.436244 1.416926 0.190511 0
M  V30 23 C 4.155951 1.028255 1.567258 0
M  V30 24 S 2.566648 0.091486 1.544480 0
M  V30 25 C 1.560138 1.408214 0.845583 0 CFG=2
M  V30 26 C -3.176880 -3.153190 3.402683 0
M  V30 27 S -4.008701 -2.291856 4.858597 0
M  V30 28 H -3.150087 0.960781 5.928045 0
M  V30 29 H -3.039649 0.897103 5.973124 0
M  V30 30 H -2.057770 -4.066134 1.382864 0
M  V30 31 H -1.779785 -4.731892 -0.685211 0
M  V30 32 H -0.346509 -5.026919 0.290650 0
M  V30 33 H -0.083076 -2.035937 -2.614608 0
M  V30 34 H 0.166489 -1.090749 -0.405989 0
M  V30 35 H -0.542565 1.658825 0.898069 0
M  V30 36 H 3.547427 2.299389 -4.085335 0
M  V30 37 H 5.478707 1.479565 -0.055988 0
M  V30 38 H 4.016216 1.949499 2.206609 0
M  V30 39 H 4.862998 0.367756 2.055143 0
M  V30 40 H 1.596270 2.303697 1.475678 0
M  V30 41 H -3.085764 -4.291033 2.905946 0
M  V30 END ATOM
M  V30 BEGIN BOND
M  V30 1 1 1 2
M  V30 2 2 2 3
M  V30 3 1 3 4
M  V30 4 1 4 5
M  V30 5 2 5 6
M  V30 6 1 6 7
M  V30 7 1 7 8
M  V30 8 2 8 9
M  V30 9 1 8 10
M  V30 10 1 5 11
M  V30 11 2 11 12
M  V30 12 1 11 13
M  V30 13 1 13 14
M  V30 14 1 14 15
M  V30 15 2 15 16
M  V30 16 1 15 17
M  V30 17 1 17 18
M  V30 18 1 18 19
M  V30 19 2 19 20
M  V30 20 1 19 21
M  V30 21 2 18 22
M  V30 22 1 22 23
M  V30 23 1 23 24
M  V30 24 1 24 25
M  V30 25 2 4 26
M  V30 26 1 26 27
M  V30 27 1 27 2
M  V30 28 1 25 14
M  V30 29 1 25 17
M  V30 30 1 1 28
M  V30 31 1 1 29
M  V30 32 1 6 30
M  V30 33 1 7 31
M  V30 34 1 7 32
M  V30 35 1 10 33
M  V30 36 1 13 34
M  V30 37 1 14 35 CFG=1
M  V30 38 1 21 36
M  V30 39 1 22 37
M  V30 40 1 23 38
M  V30 41 1 23 39
M  V30 42 1 25 40 CFG=1
M  V30 43 1 26 41
M  V30 END BOND
M  V30 END CTAB
M  END
>  <Dataset>  (166) 
OralDrugs

>  <Ligand_Instance>  (166) 
nan

>  <PDB_ID>  (166) 
nan

>  <Standardized_SMILES>  (166) 
Nc1nc(/C(=C/CC(=O)O)C(=O)N[C@@H]2C(=O)N3C(C(=O)O)=CCS[C@H]23)cs1

>  <Name>  (166) 
Ceftibuten

>  <Pocket>  (166) 
nan

>  <ATP_Site>  (166) 
nan

>  <Peripheral>  (166) 
nan

>  <Num_H_Atoms_ProtBoundConf>  (166) 
nan

>  <Num_Resolved_Atoms>  (166) 
nan

>  <Num_Not_Resolved_Atoms>  (166) 
nan

$$$$
CHEMBL118
     RDKit          3D

  0  0  0  0  0  0  0  0  0  0999 V3000
M  V30 BEGIN CTAB
M  V30 COUNTS 40 42 0 0 0
M  V30 BEGIN ATOM
M  V30 1 C -0.115896 -5.561349 0.738109 0
M  V30 2 C 0.447283 -4.210305 0.483216 0
M  V30 3 C 0.903347 -3.808421 -0.769662 0
M  V30 4 C 1.412703 -2.535759 -0.923505 0
M  V30 5 C 1.498969 -1.614134 0.117903 0
M  V30 6 C 2.067270 -0.319993 -0.243923 0
M  V30 7 C 3.189553 -0.067783 -1.007352 0
M  V30 8 C 3.293809 1.298563 -1.049765 0
M  V30 9 C 4.339401 2.103991 -1.748914 0
M  V30 10 F 4.429144 1.769878 -3.096321 0
M  V30 11 F 5.565419 1.889086 -1.125973 0
M  V30 12 F 4.010491 3.431861 -1.694705 0
M  V30 13 N 2.263471 1.807965 -0.333149 0
M  V30 14 N 1.516278 0.836538 0.158067 0
M  V30 15 C 0.377681 1.152743 0.944706 0
M  V30 16 C -0.781598 1.085694 0.170207 0
M  V30 17 C -2.027810 1.360113 0.740986 0
M  V30 18 C -2.087391 1.696547 2.077756 0
M  V30 19 S -3.647138 2.044372 2.809853 0
M  V30 20 N -4.336205 0.597414 3.440542 0
M  V30 21 O -4.497550 2.683921 1.750823 0
M  V30 22 O -3.399317 2.981126 3.963751 0
M  V30 23 C -0.938087 1.761172 2.838107 0
M  V30 24 C 0.292618 1.491401 2.279418 0
M  V30 25 C 1.042928 -2.028037 1.352526 0
M  V30 26 C 0.532720 -3.298576 1.513051 0
M  V30 27 H 0.399608 -6.320113 0.105591 0
M  V30 28 H -1.211965 -5.615612 0.626762 0
M  V30 29 H 0.184363 -5.836932 1.789314 0
M  V30 30 H 0.850643 -4.501031 -1.601761 0
M  V30 31 H 1.750444 -2.295143 -1.937479 0
M  V30 32 H 3.842163 -0.804744 -1.470057 0
M  V30 33 H -0.860365 0.834438 -0.881548 0
M  V30 34 H -2.958107 1.323387 0.188584 0
M  V30 35 H -3.635717 -0.160964 3.370327 0
M  V30 36 H -5.131591 0.316944 2.839543 0
M  V30 37 H -0.943169 2.022486 3.894216 0
M  V30 38 H 1.251909 1.509092 2.767292 0
M  V30 39 H 1.128724 -1.281678 2.130933 0
M  V30 40 H 0.184443 -3.586604 2.498359 0
M  V30 END ATOM
M  V30 BEGIN BOND
M  V30 1 1 1 2
M  V30 2 2 2 3
M  V30 3 1 3 4
M  V30 4 2 4 5
M  V30 5 1 5 6
M  V30 6 2 6 7
M  V30 7 1 7 8
M  V30 8 1 8 9
M  V30 9 1 9 10
M  V30 10 1 9 11
M  V30 11 1 9 12
M  V30 12 2 8 13
M  V30 13 1 13 14
M  V30 14 1 14 15
M  V30 15 2 15 16
M  V30 16 1 16 17
M  V30 17 2 17 18
M  V30 18 1 18 19
M  V30 19 1 19 20
M  V30 20 2 19 21
M  V30 21 2 19 22
M  V30 22 1 18 23
M  V30 23 2 23 24
M  V30 24 1 5 25
M  V30 25 2 25 26
M  V30 26 1 26 2
M  V30 27 1 14 6
M  V30 28 1 24 15
M  V30 29 1 1 27
M  V30 30 1 1 28
M  V30 31 1 1 29
M  V30 32 1 3 30
M  V30 33 1 4 31
M  V30 34 1 7 32
M  V30 35 1 16 33
M  V30 36 1 17 34
M  V30 37 1 20 35
M  V30 38 1 20 36
M  V30 39 1 23 37
M  V30 40 1 24 38
M  V30 41 1 25 39
M  V30 42 1 26 40
M  V30 END BOND
M  V30 END CTAB
M  END
>  <Dataset>  (167) 
OralDrugs

>  <Ligand_Instance>  (167) 
nan

>  <PDB_ID>  (167) 
nan

>  <Standardized_SMILES>  (167) 
Cc1ccc(-c2cc(C(F)(F)F)nn2-c2ccc(S(N)(=O)=O)cc2)cc1

>  <Name>  (167) 
Celecoxib

>  <Pocket>  (167) 
nan

>  <ATP_Site>  (167) 
nan

>  <Peripheral>  (167) 
nan

>  <Num_H_Atoms_ProtBoundConf>  (167) 
nan

>  <Num_Resolved_Atoms>  (167) 
nan

>  <Num_Not_Resolved_Atoms>  (167) 
nan

$$$$
CHEMBL3989949
     RDKit          3D

  0  0  0  0  0  0  0  0  0  0999 V3000
M  V30 BEGIN CTAB
M  V30 COUNTS 28 29 0 0 0
M  V30 BEGIN ATOM
M  V30 1 N -3.324853 -2.275565 2.803987 0
M  V30 2 C -2.025747 -2.267847 2.223596 0
M  V30 3 O -1.175916 -3.202505 2.391112 0
M  V30 4 O -1.546178 -1.248179 1.417266 0
M  V30 5 C -0.225176 -1.291392 0.856861 0 CFG=1
M  V30 6 C -0.427753 -1.320720 -0.643324 0
M  V30 7 N 0.841297 -1.368272 -1.336029 0
M  V30 8 N 1.413064 -2.544556 -1.642148 0
M  V30 9 C 2.570084 -2.280942 -2.276143 0
M  V30 10 N 2.670387 -0.937597 -2.338360 0
M  V30 11 N 1.614895 -0.380771 -1.764381 0
M  V30 12 C 0.557696 -0.103527 1.270405 0
M  V30 13 C -0.218550 1.045103 1.465968 0
M  V30 14 C 0.310966 2.262184 1.848452 0
M  V30 15 C 1.671888 2.367260 2.051964 0
M  V30 16 C 2.444496 1.234917 1.860220 0
M  V30 17 C 1.914108 0.016898 1.477477 0
M  V30 18 Cl 2.829450 -1.436816 1.227517 0
M  V30 19 H -3.479893 -2.939596 3.598469 0
M  V30 20 H -4.000197 -1.615550 2.379484 0
M  V30 21 H 0.307473 -2.204846 1.152659 0
M  V30 22 H -1.061668 -2.177447 -0.950183 0
M  V30 23 H -0.985340 -0.388603 -0.935692 0
M  V30 24 H 3.369699 -2.861339 -2.710108 0
M  V30 25 H -1.304244 1.072118 1.332204 0
M  V30 26 H -0.274536 3.136720 1.998073 0
M  V30 27 H 2.203256 3.261131 2.351276 0
M  V30 28 H 3.536896 1.196754 1.991988 0
M  V30 END ATOM
M  V30 BEGIN BOND
M  V30 1 1 1 2
M  V30 2 2 2 3
M  V30 3 1 2 4
M  V30 4 1 4 5
M  V30 5 1 5 6
M  V30 6 1 6 7
M  V30 7 1 7 8
M  V30 8 2 8 9
M  V30 9 1 9 10
M  V30 10 2 10 11
M  V30 11 1 5 12
M  V30 12 2 12 13
M  V30 13 1 13 14
M  V30 14 2 14 15
M  V30 15 1 15 16
M  V30 16 2 16 17
M  V30 17 1 17 18
M  V30 18 1 11 7
M  V30 19 1 17 12
M  V30 20 1 1 19
M  V30 21 1 1 20
M  V30 22 1 5 21 CFG=1
M  V30 23 1 6 22
M  V30 24 1 6 23
M  V30 25 1 9 24
M  V30 26 1 13 25
M  V30 27 1 14 26
M  V30 28 1 15 27
M  V30 29 1 16 28
M  V30 END BOND
M  V30 END CTAB
M  END
>  <Dataset>  (168) 
OralDrugs

>  <Ligand_Instance>  (168) 
nan

>  <PDB_ID>  (168) 
nan

>  <Standardized_SMILES>  (168) 
NC(=O)O[C@@H](Cn1ncnn1)c1ccccc1Cl

>  <Name>  (168) 
Cenobamate

>  <Pocket>  (168) 
nan

>  <ATP_Site>  (168) 
nan

>  <Peripheral>  (168) 
nan

>  <Num_H_Atoms_ProtBoundConf>  (168) 
nan

>  <Num_Resolved_Atoms>  (168) 
nan

>  <Num_Not_Resolved_Atoms>  (168) 
nan

$$$$
CHEMBL1200544
     RDKit          3D

  0  0  0  0  0  0  0  0  0  0999 V3000
M  V30 BEGIN CTAB
M  V30 COUNTS 41 43 0 0 0
M  V30 BEGIN ATOM
M  V30 1 C 2.636100 -5.215452 1.147497 0
M  V30 2 C 2.111891 -3.814926 1.053330 0
M  V30 3 C 2.997586 -2.928298 0.635000 0
M  V30 4 C 4.360521 -3.313757 0.301014 0
M  V30 5 O 5.235606 -2.509412 -0.100643 0
M  V30 6 O 5.051982 -4.504136 0.308632 0
M  V30 7 N 2.625527 -1.565203 0.505812 0
M  V30 8 C 2.725876 -0.368057 -0.247383 0
M  V30 9 O 3.344248 0.044067 -1.287335 0
M  V30 10 C 1.793983 0.296430 0.655199 0 CFG=1
M  V30 11 N 0.545272 0.763993 0.098434 0
M  V30 12 C 0.226456 2.125842 0.352172 0
M  V30 13 O 0.962956 2.908121 1.017685 0
M  V30 14 C -1.039597 2.679830 -0.186860 0 CFG=2
M  V30 15 N -1.105949 4.069882 0.218578 0
M  V30 16 C -2.166334 1.995232 0.519443 0
M  V30 17 C -2.312573 2.313549 1.854522 0
M  V30 18 C -3.307157 1.760265 2.633805 0
M  V30 19 C -4.175954 0.855317 2.026950 0
M  V30 20 C -4.017480 0.545843 0.688508 0
M  V30 21 C -3.019258 1.102600 -0.089212 0
M  V30 22 C 1.751896 -0.927578 1.486511 0 CFG=1
M  V30 23 S 0.239614 -1.882758 1.483737 0
M  V30 24 C 0.694973 -3.631818 1.432585 0
M  V30 25 H 3.487625 -5.274002 1.856888 0
M  V30 26 H 1.882647 -5.925143 1.544234 0
M  V30 27 H 2.988809 -5.580616 0.152694 0
M  V30 28 H 5.364414 -5.014358 -0.496878 0
M  V30 29 H 2.342926 1.103983 1.222808 0
M  V30 30 H -0.035107 0.113036 -0.436995 0
M  V30 31 H -1.079270 2.570234 -1.271488 0
M  V30 32 H -2.015676 4.359105 0.592600 0
M  V30 33 H -0.623703 4.726356 -0.407381 0
M  V30 34 H -1.638805 3.024445 2.352915 0
M  V30 35 H -3.467066 1.973559 3.682112 0
M  V30 36 H -4.968118 0.406457 2.622647 0
M  V30 37 H -4.689603 -0.163875 0.189616 0
M  V30 38 H -2.875718 0.876102 -1.137182 0
M  V30 39 H 2.181266 -0.853572 2.508979 0
M  V30 40 H 0.018343 -4.099380 0.667045 0
M  V30 41 H 0.519685 -4.137958 2.404488 0
M  V30 END ATOM
M  V30 BEGIN BOND
M  V30 1 1 1 2
M  V30 2 2 2 3
M  V30 3 1 3 4
M  V30 4 2 4 5
M  V30 5 1 4 6
M  V30 6 1 3 7
M  V30 7 1 7 8
M  V30 8 2 8 9
M  V30 9 1 8 10
M  V30 10 1 10 11
M  V30 11 1 11 12
M  V30 12 2 12 13
M  V30 13 1 12 14
M  V30 14 1 14 15
M  V30 15 1 14 16
M  V30 16 2 16 17
M  V30 17 1 17 18
M  V30 18 2 18 19
M  V30 19 1 19 20
M  V30 20 2 20 21
M  V30 21 1 10 22
M  V30 22 1 22 23
M  V30 23 1 23 24
M  V30 24 1 24 2
M  V30 25 1 22 7
M  V30 26 1 21 16
M  V30 27 1 1 25
M  V30 28 1 1 26
M  V30 29 1 1 27
M  V30 30 1 6 28
M  V30 31 1 10 29 CFG=1
M  V30 32 1 11 30
M  V30 33 1 14 31 CFG=3
M  V30 34 1 15 32
M  V30 35 1 15 33
M  V30 36 1 17 34
M  V30 37 1 18 35
M  V30 38 1 19 36
M  V30 39 1 20 37
M  V30 40 1 21 38
M  V30 41 1 22 39 CFG=1
M  V30 42 1 24 40
M  V30 43 1 24 41
M  V30 END BOND
M  V30 END CTAB
M  END
>  <Dataset>  (169) 
OralDrugs

>  <Ligand_Instance>  (169) 
nan

>  <PDB_ID>  (169) 
nan

>  <Standardized_SMILES>  (169) 
CC1=C(C(=O)O)N2C(=O)[C@@H](NC(=O)[C@H](N)c3ccccc3)[C@H]2SC1

>  <Name>  (169) 
Cephalexin

>  <Pocket>  (169) 
nan

>  <ATP_Site>  (169) 
nan

>  <Peripheral>  (169) 
nan

>  <Num_H_Atoms_ProtBoundConf>  (169) 
nan

>  <Num_Resolved_Atoms>  (169) 
nan

>  <Num_Not_Resolved_Atoms>  (169) 
nan

$$$$
CHEMBL1200971
     RDKit          3D

  0  0  0  0  0  0  0  0  0  0999 V3000
M  V30 BEGIN CTAB
M  V30 COUNTS 47 49 0 0 0
M  V30 BEGIN ATOM
M  V30 1 C -5.249065 -0.890149 -2.261507 0
M  V30 2 C -4.266523 -2.017209 -2.102483 0
M  V30 3 O -4.559400 -2.969623 -1.383889 0
M  V30 4 O -3.138271 -1.994099 -2.703457 0
M  V30 5 C -1.925671 -2.459912 -3.052426 0
M  V30 6 C -0.971606 -2.605681 -1.957754 0
M  V30 7 C 0.161315 -1.916587 -1.975374 0
M  V30 8 C 0.537786 -0.980089 -3.065015 0
M  V30 9 O 0.138855 -0.513083 -4.153732 0
M  V30 10 O 1.695703 -0.238374 -3.128952 0
M  V30 11 N 1.169861 -1.974777 -0.941476 0
M  V30 12 C 2.399386 -1.477294 -0.380853 0
M  V30 13 O 3.434451 -0.905319 -0.812412 0
M  V30 14 C 2.017791 -1.894999 0.998737 0 CFG=1
M  V30 15 N 1.347100 -0.868364 1.727417 0
M  V30 16 C 1.548167 -0.578227 3.128883 0
M  V30 17 O 2.402345 -1.353954 3.652699 0
M  V30 18 C 0.747344 0.540561 3.698636 0 CFG=2
M  V30 19 N -0.073369 1.183191 2.688543 0
M  V30 20 C 1.553376 1.527864 4.446752 0
M  V30 21 C 0.767798 2.633045 4.798276 0
M  V30 22 C 1.351739 3.683785 5.517189 0
M  V30 23 C 2.683208 3.635381 5.877007 0
M  V30 24 C 3.443909 2.527481 5.517280 0
M  V30 25 C 2.857790 1.518703 4.819515 0
M  V30 26 C 1.187617 -2.862437 0.198669 0 CFG=1
M  V30 27 S -0.542798 -3.032539 0.718125 0
M  V30 28 C -1.253434 -3.563002 -0.876437 0
M  V30 29 H -6.158503 -1.104359 -1.661292 0
M  V30 30 H -4.777649 0.057031 -1.902954 0
M  V30 31 H -5.520878 -0.748405 -3.317045 0
M  V30 32 H -2.077856 -3.482017 -3.561176 0
M  V30 33 H -1.552781 -1.797622 -3.889667 0
M  V30 34 H 1.792052 0.754000 -3.258309 0
M  V30 35 H 2.767905 -2.461689 1.565508 0
M  V30 36 H 0.664240 -0.321560 1.120671 0
M  V30 37 H 0.002738 0.150355 4.455023 0
M  V30 38 H 0.486085 1.549426 1.909494 0
M  V30 39 H -0.875371 0.618327 2.395606 0
M  V30 40 H -0.265107 2.797248 4.585033 0
M  V30 41 H 0.864869 4.585303 5.847173 0
M  V30 42 H 3.186076 4.432064 6.439138 0
M  V30 43 H 4.484355 2.484773 5.795270 0
M  V30 44 H 3.375282 0.625497 4.501284 0
M  V30 45 H 1.636370 -3.850468 0.046329 0
M  V30 46 H -0.638089 -4.487897 -1.158697 0
M  V30 47 H -2.269056 -3.898570 -0.781757 0
M  V30 END ATOM
M  V30 BEGIN BOND
M  V30 1 1 1 2
M  V30 2 2 2 3
M  V30 3 1 2 4
M  V30 4 1 4 5
M  V30 5 1 5 6
M  V30 6 2 6 7
M  V30 7 1 7 8
M  V30 8 2 8 9
M  V30 9 1 8 10
M  V30 10 1 7 11
M  V30 11 1 11 12
M  V30 12 2 12 13
M  V30 13 1 12 14
M  V30 14 1 14 15
M  V30 15 1 15 16
M  V30 16 2 16 17
M  V30 17 1 16 18
M  V30 18 1 18 19
M  V30 19 1 18 20
M  V30 20 2 20 21
M  V30 21 1 21 22
M  V30 22 2 22 23
M  V30 23 1 23 24
M  V30 24 2 24 25
M  V30 25 1 14 26
M  V30 26 1 26 27
M  V30 27 1 27 28
M  V30 28 1 28 6
M  V30 29 1 26 11
M  V30 30 1 25 20
M  V30 31 1 1 29
M  V30 32 1 1 30
M  V30 33 1 1 31
M  V30 34 1 5 32
M  V30 35 1 5 33
M  V30 36 1 10 34
M  V30 37 1 14 35 CFG=1
M  V30 38 1 15 36
M  V30 39 1 18 37 CFG=1
M  V30 40 1 19 38
M  V30 41 1 19 39
M  V30 42 1 21 40
M  V30 43 1 22 41
M  V30 44 1 23 42
M  V30 45 1 24 43
M  V30 46 1 25 44
M  V30 47 1 26 45 CFG=3
M  V30 48 1 28 46
M  V30 49 1 28 47
M  V30 END BOND
M  V30 END CTAB
M  END
>  <Dataset>  (170) 
OralDrugs

>  <Ligand_Instance>  (170) 
nan

>  <PDB_ID>  (170) 
nan

>  <Standardized_SMILES>  (170) 
CC(=O)OCC1=C(C(=O)O)N2C(=O)[C@@H](NC(=O)[C@H](N)c3ccccc3)[C@H]2SC1

>  <Name>  (170) 
Cephaloglycin

>  <Pocket>  (170) 
nan

>  <ATP_Site>  (170) 
nan

>  <Peripheral>  (170) 
nan

>  <Num_H_Atoms_ProtBoundConf>  (170) 
nan

>  <Num_Resolved_Atoms>  (170) 
nan

>  <Num_Not_Resolved_Atoms>  (170) 
nan

$$$$
CHEMBL1604
     RDKit          3D

  0  0  0  0  0  0  0  0  0  0999 V3000
M  V30 BEGIN CTAB
M  V30 COUNTS 43 45 0 0 0
M  V30 BEGIN ATOM
M  V30 1 C 2.588640 -5.818962 -0.216558 0
M  V30 2 C 1.682051 -4.632862 -0.051859 0
M  V30 3 C 1.797541 -4.043582 1.125445 0
M  V30 4 C 2.726686 -4.530186 2.134077 0
M  V30 5 O 2.874340 -4.011701 3.256343 0
M  V30 6 O 3.631867 -5.570749 2.202025 0
M  V30 7 N 0.999963 -2.908518 1.427304 0
M  V30 8 C 0.933837 -1.632086 2.040197 0
M  V30 9 O 1.688673 -0.874089 2.739733 0
M  V30 10 C -0.434061 -1.459205 1.548911 0 CFG=1
M  V30 11 N -0.522894 -0.369886 0.607424 0
M  V30 12 C -1.449629 0.706659 0.779584 0
M  V30 13 O -2.132839 0.552254 1.827517 0
M  V30 14 C -1.509600 1.812533 -0.215925 0 CFG=2
M  V30 15 N -0.526465 1.581864 -1.286307 0
M  V30 16 C -0.982022 3.024275 0.507866 0
M  V30 17 C 0.084774 3.756467 0.170113 0
M  V30 18 C 0.316363 4.887540 1.116014 0
M  V30 19 C 0.333638 4.345134 2.522292 0
M  V30 20 C -0.716505 3.612018 2.870405 0
M  V30 21 C -1.689574 3.502350 1.742315 0
M  V30 22 C -0.395115 -2.833933 0.999849 0 CFG=1
M  V30 23 S -0.362556 -2.999027 -0.786978 0
M  V30 24 C 0.817642 -4.300867 -1.203499 0
M  V30 25 H 3.651172 -5.543847 -0.129438 0
M  V30 26 H 2.385962 -6.613748 0.529891 0
M  V30 27 H 2.463065 -6.286539 -1.198985 0
M  V30 28 H 4.637445 -5.419185 2.199337 0
M  V30 29 H -1.130951 -1.404851 2.412429 0
M  V30 30 H 0.133301 -0.423786 -0.202560 0
M  V30 31 H -2.519612 1.990689 -0.613726 0
M  V30 32 H -0.614993 2.297643 -2.026180 0
M  V30 33 H -0.682905 0.648882 -1.732832 0
M  V30 34 H 0.600650 3.400743 -0.737421 0
M  V30 35 H -0.451308 5.656583 0.970925 0
M  V30 36 H 1.362187 5.278214 0.952984 0
M  V30 37 H 1.159188 4.535774 3.230807 0
M  V30 38 H -0.799088 3.177236 3.858234 0
M  V30 39 H -2.540345 2.846599 2.017161 0
M  V30 40 H -2.148308 4.501875 1.555720 0
M  V30 41 H -1.055673 -3.582860 1.491953 0
M  V30 42 H 0.301648 -5.253583 -1.477084 0
M  V30 43 H 1.468778 -3.980663 -2.068715 0
M  V30 END ATOM
M  V30 BEGIN BOND
M  V30 1 1 1 2
M  V30 2 2 2 3
M  V30 3 1 3 4
M  V30 4 2 4 5
M  V30 5 1 4 6
M  V30 6 1 3 7
M  V30 7 1 7 8
M  V30 8 2 8 9
M  V30 9 1 8 10
M  V30 10 1 10 11
M  V30 11 1 11 12
M  V30 12 2 12 13
M  V30 13 1 12 14
M  V30 14 1 14 15
M  V30 15 1 14 16
M  V30 16 2 16 17
M  V30 17 1 17 18
M  V30 18 1 18 19
M  V30 19 2 19 20
M  V30 20 1 20 21
M  V30 21 1 10 22
M  V30 22 1 22 23
M  V30 23 1 23 24
M  V30 24 1 24 2
M  V30 25 1 22 7
M  V30 26 1 21 16
M  V30 27 1 1 25
M  V30 28 1 1 26
M  V30 29 1 1 27
M  V30 30 1 6 28
M  V30 31 1 10 29 CFG=1
M  V30 32 1 11 30
M  V30 33 1 14 31 CFG=3
M  V30 34 1 15 32
M  V30 35 1 15 33
M  V30 36 1 17 34
M  V30 37 1 18 35
M  V30 38 1 18 36
M  V30 39 1 19 37
M  V30 40 1 20 38
M  V30 41 1 21 39
M  V30 42 1 21 40
M  V30 43 1 22 41 CFG=1
M  V30 44 1 24 42
M  V30 45 1 24 43
M  V30 END BOND
M  V30 END CTAB
M  END
>  <Dataset>  (171) 
OralDrugs

>  <Ligand_Instance>  (171) 
nan

>  <PDB_ID>  (171) 
nan

>  <Standardized_SMILES>  (171) 
CC1=C(C(=O)O)N2C(=O)[C@@H](NC(=O)[C@H](N)C3=CCC=CC3)[C@H]2SC1

>  <Name>  (171) 
Cephradine

>  <Pocket>  (171) 
nan

>  <ATP_Site>  (171) 
nan

>  <Peripheral>  (171) 
nan

>  <Num_H_Atoms_ProtBoundConf>  (171) 
nan

>  <Num_Resolved_Atoms>  (171) 
nan

>  <Num_Not_Resolved_Atoms>  (171) 
nan

$$$$
CHEMBL2403108
     RDKit          3D

  0  0  0  0  0  0  0  0  0  0999 V3000
M  V30 BEGIN CTAB
M  V30 COUNTS 74 77 0 0 0
M  V30 BEGIN ATOM
M  V30 1 C 2.433733 1.739536 0.494818 0
M  V30 2 C 2.027406 0.563595 1.267135 0
M  V30 3 C 0.746053 0.423893 1.751854 0
M  V30 4 C 0.322585 -0.663659 2.476958 0
M  V30 5 N -1.038000 -0.747502 2.927914 0
M  V30 6 C -1.925464 0.339163 2.591173 0
M  V30 7 N -2.497909 1.354584 3.306654 0
M  V30 8 C -3.287211 2.250398 2.688090 0
M  V30 9 C -3.499066 2.123424 1.352557 0
M  V30 10 Cl -4.512736 3.276933 0.529454 0
M  V30 11 C -2.950652 1.125881 0.583552 0
M  V30 12 N -3.158605 0.960119 -0.834378 0
M  V30 13 C -4.054976 -0.086592 -1.223993 0
M  V30 14 C -4.674994 -0.866961 -0.274843 0
M  V30 15 C -5.548348 -1.925717 -0.518449 0
M  V30 16 C -5.771804 -2.162627 -1.876035 0
M  V30 17 C -5.168038 -1.398783 -2.882925 0
M  V30 18 C -4.316709 -0.369522 -2.562413 0
M  V30 19 S -3.546941 0.585734 -3.777122 0
M  V30 20 O -3.964754 2.035371 -3.598575 0
M  V30 21 O -2.050637 0.513216 -3.650316 0
M  V30 22 C -4.070896 0.045595 -5.392038 0
M  V30 23 C -5.523361 0.343250 -5.601969 0
M  V30 24 C -3.276827 0.803852 -6.467619 0
M  V30 25 N -2.157147 0.244608 1.269872 0
M  V30 26 C 1.245007 -1.655158 2.721223 0
M  V30 27 O 0.836375 -2.746711 3.445152 0
M  V30 28 C 1.517667 -3.906558 3.787081 0
M  V30 29 C 1.729009 -3.961610 5.302628 0
M  V30 30 C 0.601845 -5.083926 3.473899 0
M  V30 31 C 2.525473 -1.497046 2.226016 0
M  V30 32 C 2.986698 -0.395469 1.480974 0
M  V30 33 C 4.374826 -0.503059 1.129867 0
M  V30 34 C 4.981227 0.361160 0.097301 0
M  V30 35 C 6.235644 -0.398466 -0.386739 0
M  V30 36 N 6.515427 -1.558785 0.406805 0
M  V30 37 C 6.528781 -1.368581 1.828565 0
M  V30 38 C 5.353446 -0.508050 2.306372 0
M  V30 39 H 2.240004 1.634360 -0.609460 0
M  V30 40 H 3.373312 2.213063 0.757436 0
M  V30 41 H 1.663679 2.534485 0.765994 0
M  V30 42 H 0.018708 1.202048 1.560236 0
M  V30 43 H -1.300463 -1.595552 3.476946 0
M  V30 44 H -3.691074 3.008633 3.322188 0
M  V30 45 H -2.714877 1.530065 -1.581131 0
M  V30 46 H -4.483548 -0.658114 0.786096 0
M  V30 47 H -6.005179 -2.501118 0.249020 0
M  V30 48 H -6.459553 -3.001107 -2.051832 0
M  V30 49 H -5.393655 -1.648856 -3.893570 0
M  V30 50 H -3.793351 -1.022359 -5.495053 0
M  V30 51 H -6.044292 -0.599084 -5.932559 0
M  V30 52 H -5.666918 1.118967 -6.408536 0
M  V30 53 H -5.983667 0.727014 -4.690482 0
M  V30 54 H -3.645967 1.842235 -6.451847 0
M  V30 55 H -3.549685 0.318464 -7.420807 0
M  V30 56 H -2.214061 0.696558 -6.212596 0
M  V30 57 H 2.498436 -4.004341 3.296465 0
M  V30 58 H 2.487797 -3.241802 5.615700 0
M  V30 59 H 2.000164 -5.031380 5.518937 0
M  V30 60 H 0.762769 -3.700654 5.776058 0
M  V30 61 H 0.062664 -5.428200 4.378956 0
M  V30 62 H -0.203557 -4.771221 2.759868 0
M  V30 63 H 1.147954 -5.935211 3.056274 0
M  V30 64 H 3.183333 -2.342152 2.474697 0
M  V30 65 H 4.482075 -1.566226 0.699128 0
M  V30 66 H 5.475047 1.282252 0.555005 0
M  V30 67 H 4.368772 0.604522 -0.774484 0
M  V30 68 H 6.003910 -0.790803 -1.417010 0
M  V30 69 H 7.098387 0.274641 -0.548346 0
M  V30 70 H 6.176206 -2.454503 0.056239 0
M  V30 71 H 7.484569 -0.973744 2.222145 0
M  V30 72 H 6.378102 -2.364627 2.298108 0
M  V30 73 H 5.704669 0.501697 2.503403 0
M  V30 74 H 4.809378 -0.958689 3.151777 0
M  V30 END ATOM
M  V30 BEGIN BOND
M  V30 1 1 1 2
M  V30 2 2 2 3
M  V30 3 1 3 4
M  V30 4 1 4 5
M  V30 5 1 5 6
M  V30 6 2 6 7
M  V30 7 1 7 8
M  V30 8 2 8 9
M  V30 9 1 9 10
M  V30 10 1 9 11
M  V30 11 1 11 12
M  V30 12 1 12 13
M  V30 13 2 13 14
M  V30 14 1 14 15
M  V30 15 2 15 16
M  V30 16 1 16 17
M  V30 17 2 17 18
M  V30 18 1 18 19
M  V30 19 2 19 20
M  V30 20 2 19 21
M  V30 21 1 19 22
M  V30 22 1 22 23
M  V30 23 1 22 24
M  V30 24 2 11 25
M  V30 25 2 4 26
M  V30 26 1 26 27
M  V30 27 1 27 28
M  V30 28 1 28 29
M  V30 29 1 28 30
M  V30 30 1 26 31
M  V30 31 2 31 32
M  V30 32 1 32 33
M  V30 33 1 33 34
M  V30 34 1 34 35
M  V30 35 1 35 36
M  V30 36 1 36 37
M  V30 37 1 37 38
M  V30 38 1 32 2
M  V30 39 1 38 33
M  V30 40 1 25 6
M  V30 41 1 18 13
M  V30 42 1 1 39
M  V30 43 1 1 40
M  V30 44 1 1 41
M  V30 45 1 3 42
M  V30 46 1 5 43
M  V30 47 1 8 44
M  V30 48 1 12 45
M  V30 49 1 14 46
M  V30 50 1 15 47
M  V30 51 1 16 48
M  V30 52 1 17 49
M  V30 53 1 22 50
M  V30 54 1 23 51
M  V30 55 1 23 52
M  V30 56 1 23 53
M  V30 57 1 24 54
M  V30 58 1 24 55
M  V30 59 1 24 56
M  V30 60 1 28 57
M  V30 61 1 29 58
M  V30 62 1 29 59
M  V30 63 1 29 60
M  V30 64 1 30 61
M  V30 65 1 30 62
M  V30 66 1 30 63
M  V30 67 1 31 64
M  V30 68 1 33 65
M  V30 69 1 34 66
M  V30 70 1 34 67
M  V30 71 1 35 68
M  V30 72 1 35 69
M  V30 73 1 36 70
M  V30 74 1 37 71
M  V30 75 1 37 72
M  V30 76 1 38 73
M  V30 77 1 38 74
M  V30 END BOND
M  V30 END CTAB
M  END
>  <Dataset>  (172) 
OralDrugs

>  <Ligand_Instance>  (172) 
nan

>  <PDB_ID>  (172) 
nan

>  <Standardized_SMILES>  (172) 
Cc1cc(Nc2ncc(Cl)c(Nc3ccccc3S(=O)(=O)C(C)C)n2)c(OC(C)C)cc1C1CCNCC1

>  <Name>  (172) 
Ceritinib

>  <Pocket>  (172) 
nan

>  <ATP_Site>  (172) 
nan

>  <Peripheral>  (172) 
nan

>  <Num_H_Atoms_ProtBoundConf>  (172) 
nan

>  <Num_Resolved_Atoms>  (172) 
nan

>  <Num_Not_Resolved_Atoms>  (172) 
nan

$$$$
CHEMBL1000
     RDKit          3D

  0  0  0  0  0  0  0  0  0  0999 V3000
M  V30 BEGIN CTAB
M  V30 COUNTS 52 54 0 0 0
M  V30 BEGIN ATOM
M  V30 1 O 2.940375 -3.989727 4.443888 0
M  V30 2 C 2.347276 -4.861073 3.731015 0
M  V30 3 O 2.058665 -6.110342 4.295844 0
M  V30 4 C 1.909000 -4.710635 2.326672 0
M  V30 5 O 2.216537 -3.454147 1.807403 0
M  V30 6 C 1.750494 -3.437160 0.471977 0
M  V30 7 C 2.074898 -2.100169 -0.088474 0
M  V30 8 N 1.695459 -1.853127 -1.433298 0
M  V30 9 C 2.111649 -0.486720 -1.767390 0
M  V30 10 C 1.311974 0.536850 -0.969282 0
M  V30 11 N 0.020534 -0.063061 -0.664381 0
M  V30 12 C -0.868207 1.008900 -0.313764 0
M  V30 13 C -0.297403 1.702777 0.870645 0
M  V30 14 C -0.271670 3.084354 0.884518 0
M  V30 15 C 0.255170 3.748673 1.976757 0
M  V30 16 C 0.760900 3.069780 3.063767 0
M  V30 17 C 0.738800 1.678600 3.057856 0
M  V30 18 C 0.210606 1.030189 1.962287 0
M  V30 19 C -2.242505 0.616914 -0.010123 0
M  V30 20 C -3.325481 1.333596 -0.534416 0
M  V30 21 C -4.642077 1.007249 -0.280241 0
M  V30 22 C -4.952157 -0.069699 0.524134 0
M  V30 23 Cl -6.577206 -0.549343 0.895061 0
M  V30 24 C -3.908390 -0.808497 1.065228 0
M  V30 25 C -2.604482 -0.454697 0.790723 0
M  V30 26 C -0.368734 -0.766268 -1.861285 0
M  V30 27 C 0.334349 -2.120380 -1.754295 0
M  V30 28 H 2.079022 -6.275633 5.286008 0
M  V30 29 H 0.805626 -4.916928 2.305929 0
M  V30 30 H 2.359115 -5.504508 1.695132 0
M  V30 31 H 0.663317 -3.612626 0.560158 0
M  V30 32 H 2.241802 -4.292508 -0.025048 0
M  V30 33 H 3.198037 -1.993498 -0.043454 0
M  V30 34 H 1.693391 -1.330019 0.591928 0
M  V30 35 H 2.098753 -0.295820 -2.851726 0
M  V30 36 H 3.167625 -0.405756 -1.434176 0
M  V30 37 H 1.843918 0.851104 -0.056033 0
M  V30 38 H 1.151744 1.387045 -1.659729 0
M  V30 39 H -0.885733 1.709629 -1.174476 0
M  V30 40 H -0.652036 3.694996 0.064056 0
M  V30 41 H 0.281570 4.837771 2.000588 0
M  V30 42 H 1.185127 3.537553 3.945245 0
M  V30 43 H 1.133113 1.121266 3.906213 0
M  V30 44 H 0.205152 -0.047637 1.982324 0
M  V30 45 H -3.167398 2.194593 -1.176720 0
M  V30 46 H -5.450784 1.585301 -0.703660 0
M  V30 47 H -4.129331 -1.671821 1.709808 0
M  V30 48 H -1.841305 -1.046756 1.224977 0
M  V30 49 H -1.439891 -0.836530 -2.017553 0
M  V30 50 H 0.041622 -0.242479 -2.761048 0
M  V30 51 H -0.212130 -2.783070 -1.085122 0
M  V30 52 H 0.315643 -2.543047 -2.790760 0
M  V30 END ATOM
M  V30 BEGIN BOND
M  V30 1 2 1 2
M  V30 2 1 2 3
M  V30 3 1 2 4
M  V30 4 1 4 5
M  V30 5 1 5 6
M  V30 6 1 6 7
M  V30 7 1 7 8
M  V30 8 1 8 9
M  V30 9 1 9 10
M  V30 10 1 10 11
M  V30 11 1 11 12
M  V30 12 1 12 13
M  V30 13 2 13 14
M  V30 14 1 14 15
M  V30 15 2 15 16
M  V30 16 1 16 17
M  V30 17 2 17 18
M  V30 18 1 12 19
M  V30 19 2 19 20
M  V30 20 1 20 21
M  V30 21 2 21 22
M  V30 22 1 22 23
M  V30 23 1 22 24
M  V30 24 2 24 25
M  V30 25 1 11 26
M  V30 26 1 26 27
M  V30 27 1 27 8
M  V30 28 1 18 13
M  V30 29 1 25 19
M  V30 30 1 3 28
M  V30 31 1 4 29
M  V30 32 1 4 30
M  V30 33 1 6 31
M  V30 34 1 6 32
M  V30 35 1 7 33
M  V30 36 1 7 34
M  V30 37 1 9 35
M  V30 38 1 9 36
M  V30 39 1 10 37
M  V30 40 1 10 38
M  V30 41 1 12 39
M  V30 42 1 14 40
M  V30 43 1 15 41
M  V30 44 1 16 42
M  V30 45 1 17 43
M  V30 46 1 18 44
M  V30 47 1 20 45
M  V30 48 1 21 46
M  V30 49 1 24 47
M  V30 50 1 25 48
M  V30 51 1 26 49
M  V30 52 1 26 50
M  V30 53 1 27 51
M  V30 54 1 27 52
M  V30 END BOND
M  V30 END CTAB
M  END
>  <Dataset>  (173) 
OralDrugs

>  <Ligand_Instance>  (173) 
nan

>  <PDB_ID>  (173) 
nan

>  <Standardized_SMILES>  (173) 
O=C(O)COCCN1CCN(C(c2ccccc2)c2ccc(Cl)cc2)CC1

>  <Name>  (173) 
Cetirizine

>  <Pocket>  (173) 
nan

>  <ATP_Site>  (173) 
nan

>  <Peripheral>  (173) 
nan

>  <Num_H_Atoms_ProtBoundConf>  (173) 
nan

>  <Num_Resolved_Atoms>  (173) 
nan

>  <Num_Not_Resolved_Atoms>  (173) 
nan

$$$$
CHEMBL168815
     RDKit          3D

  0  0  0  0  0  0  0  0  0  0999 V3000
M  V30 BEGIN CTAB
M  V30 COUNTS 30 32 0 0 0
M  V30 BEGIN ATOM
M  V30 1 C 0.261622 0.365298 3.783097 0
M  V30 2 C 0.051708 -1.061934 3.384141 0
M  V30 3 O -0.352672 -1.264055 2.105746 0
M  V30 4 C 0.542949 -0.917518 1.170540 0
M  V30 5 C 1.954203 -1.146036 1.578804 0
M  V30 6 S 1.731583 -1.788222 3.276943 0
M  V30 7 C 0.269951 0.480397 0.654935 0
M  V30 8 N -0.463427 0.468549 -0.611550 0
M  V30 9 C -1.606666 -0.422510 -0.481850 0
M  V30 10 C -1.120817 -1.854731 -0.466156 0
M  V30 11 C 0.313440 -1.847171 -0.028857 0
M  V30 12 C 1.121742 -1.241896 -1.175317 0
M  V30 13 C 0.445474 0.031303 -1.650569 0
M  V30 14 H 0.617506 0.363941 4.840919 0
M  V30 15 H -0.636835 0.992383 3.754572 0
M  V30 16 H 1.119308 0.760966 3.199213 0
M  V30 17 H -0.595169 -1.637147 4.058800 0
M  V30 18 H 2.524604 -1.848301 0.956529 0
M  V30 19 H 2.502609 -0.176519 1.686728 0
M  V30 20 H 1.181873 1.074327 0.501016 0
M  V30 21 H -0.412196 1.018565 1.356900 0
M  V30 22 H -2.068747 -0.243184 0.519812 0
M  V30 23 H -2.333609 -0.234170 -1.306540 0
M  V30 24 H -1.139248 -2.247367 -1.509086 0
M  V30 25 H -1.767219 -2.512879 0.129158 0
M  V30 26 H 0.739576 -2.832931 0.170635 0
M  V30 27 H 1.140853 -1.953956 -2.038181 0
M  V30 28 H 2.159827 -1.034088 -0.881115 0
M  V30 29 H 1.170348 0.840177 -1.835151 0
M  V30 30 H -0.149696 -0.148430 -2.561213 0
M  V30 END ATOM
M  V30 BEGIN BOND
M  V30 1 1 1 2
M  V30 2 1 2 3
M  V30 3 1 3 4
M  V30 4 1 4 5
M  V30 5 1 5 6
M  V30 6 1 4 7
M  V30 7 1 7 8
M  V30 8 1 8 9
M  V30 9 1 9 10
M  V30 10 1 10 11
M  V30 11 1 11 12
M  V30 12 1 12 13
M  V30 13 1 6 2
M  V30 14 1 13 8
M  V30 15 1 11 4
M  V30 16 1 1 14
M  V30 17 1 1 15
M  V30 18 1 1 16
M  V30 19 1 2 17
M  V30 20 1 5 18
M  V30 21 1 5 19
M  V30 22 1 7 20
M  V30 23 1 7 21
M  V30 24 1 9 22
M  V30 25 1 9 23
M  V30 26 1 10 24
M  V30 27 1 10 25
M  V30 28 1 11 26
M  V30 29 1 12 27
M  V30 30 1 12 28
M  V30 31 1 13 29
M  V30 32 1 13 30
M  V30 END BOND
M  V30 END CTAB
M  END
>  <Dataset>  (174) 
OralDrugs

>  <Ligand_Instance>  (174) 
nan

>  <PDB_ID>  (174) 
nan

>  <Standardized_SMILES>  (174) 
CC1OC2(CS1)CN1CCC2CC1

>  <Name>  (174) 
Cevimeline

>  <Pocket>  (174) 
nan

>  <ATP_Site>  (174) 
nan

>  <Peripheral>  (174) 
nan

>  <Num_H_Atoms_ProtBoundConf>  (174) 
nan

>  <Num_Resolved_Atoms>  (174) 
nan

>  <Num_Not_Resolved_Atoms>  (174) 
nan

$$$$
CHEMBL240597
     RDKit          3D

  0  0  0  0  0  0  0  0  0  0999 V3000
M  V30 BEGIN CTAB
M  V30 COUNTS 68 71 0 0 0
M  V30 BEGIN ATOM
M  V30 1 C 2.837939 -1.754955 3.898667 0
M  V30 2 C 2.737879 -2.487935 2.581260 0 CFG=2
M  V30 3 C 4.005154 -2.344105 1.846075 0
M  V30 4 C 4.032133 -3.060399 0.519268 0
M  V30 5 C 5.344661 -2.877411 -0.175543 0
M  V30 6 O 6.290404 -2.190339 0.336156 0
M  V30 7 O 5.479826 -3.496138 -1.409588 0
M  V30 8 C 1.435110 -2.317896 1.919055 0 CFG=1
M  V30 9 C 0.375739 -2.856419 2.847003 0
M  V30 10 C -0.835488 -1.938725 2.732022 0
M  V30 11 C -0.574311 -1.324399 1.401832 0 CFG=1
M  V30 12 C -1.373315 -0.161022 1.004483 0 CFG=2
M  V30 13 C -2.828742 -0.226232 1.333264 0 CFG=2
M  V30 14 O -3.218125 -1.578426 1.340369 0
M  V30 15 C -3.782039 0.487195 0.467880 0
M  V30 16 C -3.330153 0.880724 -0.885366 0 CFG=2
M  V30 17 C -3.752668 -0.120413 -1.943066 0
M  V30 18 C -3.512947 0.405221 -3.336787 0 CFG=2
M  V30 19 O -2.650941 -0.516108 -3.960585 0
M  V30 20 C -2.786125 1.712979 -3.272100 0
M  V30 21 C -1.549770 1.542269 -2.415046 0
M  V30 22 C -1.862871 1.229928 -0.970587 0 CFG=1
M  V30 23 C -1.669595 2.482211 -0.176123 0
M  V30 24 C -1.097164 0.037495 -0.469985 0 CFG=1
M  V30 25 C 0.371124 0.255035 -0.654112 0
M  V30 26 C 1.262228 -0.729087 0.007119 0
M  V30 27 C 0.912209 -1.033173 1.453528 0 CFG=2
M  V30 28 C 1.114482 0.163239 2.330544 0
M  V30 29 H 3.185881 -2.516998 4.667145 0
M  V30 30 H 1.899594 -1.383491 4.306725 0
M  V30 31 H 3.678522 -1.023789 3.906732 0
M  V30 32 H 2.739635 -3.587354 2.882234 0
M  V30 33 H 4.808356 -2.871113 2.448792 0
M  V30 34 H 4.409101 -1.317526 1.775601 0
M  V30 35 H 3.274189 -2.776509 -0.195916 0
M  V30 36 H 3.968348 -4.175719 0.687083 0
M  V30 37 H 6.377201 -3.461742 -1.915359 0
M  V30 38 H 1.397228 -2.996329 0.998519 0
M  V30 39 H 0.131166 -3.890060 2.517834 0
M  V30 40 H 0.710483 -2.920774 3.900994 0
M  V30 41 H -0.928109 -1.253345 3.578928 0
M  V30 42 H -1.709546 -2.621695 2.779012 0
M  V30 43 H -0.670319 -2.166005 0.653639 0
M  V30 44 H -0.962217 0.755006 1.479717 0
M  V30 45 H -2.958962 0.098132 2.388711 0
M  V30 46 H -3.907322 -1.755938 2.025614 0
M  V30 47 H -4.746062 -0.063248 0.359795 0
M  V30 48 H -4.125000 1.433489 0.988038 0
M  V30 49 H -3.845235 1.833630 -1.212994 0
M  V30 50 H -3.359121 -1.135947 -1.773766 0
M  V30 51 H -4.864923 -0.209837 -1.821564 0
M  V30 52 H -4.439083 0.476050 -3.936858 0
M  V30 53 H -2.547395 -1.347249 -3.454624 0
M  V30 54 H -2.381321 1.883406 -4.309904 0
M  V30 55 H -3.385381 2.590708 -3.049269 0
M  V30 56 H -0.945392 2.464903 -2.538945 0
M  V30 57 H -0.976162 0.729778 -2.929642 0
M  V30 58 H -2.560010 2.742384 0.453415 0
M  V30 59 H -1.565582 3.385063 -0.848158 0
M  V30 60 H -0.798021 2.519266 0.474434 0
M  V30 61 H -1.401414 -0.833455 -1.044782 0
M  V30 62 H 0.600828 1.299093 -0.359043 0
M  V30 63 H 0.587842 0.190107 -1.741794 0
M  V30 64 H 2.286186 -0.344631 -0.033509 0
M  V30 65 H 1.220707 -1.691351 -0.530073 0
M  V30 66 H 0.970264 1.067369 1.671589 0
M  V30 67 H 0.481692 0.209055 3.233119 0
M  V30 68 H 2.157500 0.302687 2.703658 0
M  V30 END ATOM
M  V30 BEGIN BOND
M  V30 1 1 1 2
M  V30 2 1 2 3
M  V30 3 1 3 4
M  V30 4 1 4 5
M  V30 5 2 5 6
M  V30 6 1 5 7
M  V30 7 1 2 8
M  V30 8 1 8 9
M  V30 9 1 9 10
M  V30 10 1 10 11
M  V30 11 1 11 12
M  V30 12 1 12 13
M  V30 13 1 13 14
M  V30 14 1 13 15
M  V30 15 1 15 16
M  V30 16 1 16 17
M  V30 17 1 17 18
M  V30 18 1 18 19
M  V30 19 1 18 20
M  V30 20 1 20 21
M  V30 21 1 21 22
M  V30 22 1 22 23 CFG=1
M  V30 23 1 22 24
M  V30 24 1 24 25
M  V30 25 1 25 26
M  V30 26 1 26 27
M  V30 27 1 27 28 CFG=1
M  V30 28 1 27 8
M  V30 29 1 27 11
M  V30 30 1 24 12
M  V30 31 1 22 16
M  V30 32 1 1 29
M  V30 33 1 1 30
M  V30 34 1 1 31
M  V30 35 1 2 32 CFG=1
M  V30 36 1 3 33
M  V30 37 1 3 34
M  V30 38 1 4 35
M  V30 39 1 4 36
M  V30 40 1 7 37
M  V30 41 1 8 38 CFG=3
M  V30 42 1 9 39
M  V30 43 1 9 40
M  V30 44 1 10 41
M  V30 45 1 10 42
M  V30 46 1 11 43 CFG=3
M  V30 47 1 12 44 CFG=1
M  V30 48 1 13 45 CFG=1
M  V30 49 1 14 46
M  V30 50 1 15 47
M  V30 51 1 15 48
M  V30 52 1 16 49 CFG=3
M  V30 53 1 17 50
M  V30 54 1 17 51
M  V30 55 1 18 52 CFG=3
M  V30 56 1 19 53
M  V30 57 1 20 54
M  V30 58 1 20 55
M  V30 59 1 21 56
M  V30 60 1 21 57
M  V30 61 1 23 58
M  V30 62 1 23 59
M  V30 63 1 23 60
M  V30 64 1 24 61 CFG=3
M  V30 65 1 25 62
M  V30 66 1 25 63
M  V30 67 1 26 64
M  V30 68 1 26 65
M  V30 69 1 28 66
M  V30 70 1 28 67
M  V30 71 1 28 68
M  V30 END BOND
M  V30 END CTAB
M  END
>  <Dataset>  (175) 
OralDrugs

>  <Ligand_Instance>  (175) 
nan

>  <PDB_ID>  (175) 
nan

>  <Standardized_SMILES>  (175) 
C[C@H](CCC(=O)O)[C@H]1CC[C@H]2[C@@H]3[C@H](O)C[C@@H]4C[C@H](O)CC[C@]4(C)[C@H]3CC[C@]12C

>  <Name>  (175) 
Chenodiol

>  <Pocket>  (175) 
nan

>  <ATP_Site>  (175) 
nan

>  <Peripheral>  (175) 
nan

>  <Num_H_Atoms_ProtBoundConf>  (175) 
nan

>  <Num_Resolved_Atoms>  (175) 
nan

>  <Num_Not_Resolved_Atoms>  (175) 
nan

$$$$
CHEMBL1201313
     RDKit          3D

  0  0  0  0  0  0  0  0  0  0999 V3000
M  V30 BEGIN CTAB
M  V30 COUNTS 40 41 0 0 0
M  V30 BEGIN ATOM
M  V30 1 C 0.706790 -2.662159 3.425936 0
M  V30 2 N 0.050079 -2.869479 2.157076 0
M  V30 3 C -0.892898 -3.943287 2.295506 0
M  V30 4 C 0.853120 -2.877364 1.015247 0
M  V30 5 C 1.410100 -1.589835 0.492959 0
M  V30 6 C 0.382635 -0.662755 0.021632 0
M  V30 7 O -0.431034 -1.307735 -0.969633 0
M  V30 8 C 1.012960 0.413775 -0.904996 0
M  V30 9 C 1.080413 0.374369 -2.279876 0
M  V30 10 C 1.666105 1.404377 -2.977111 0
M  V30 11 C 2.191431 2.486738 -2.302515 0
M  V30 12 C 2.134239 2.545346 -0.927268 0
M  V30 13 C 1.545712 1.509063 -0.238386 0
M  V30 14 C -0.354639 0.099590 0.982507 0
M  V30 15 C -0.372110 0.392394 2.314649 0
M  V30 16 C -1.203032 1.229112 3.015489 0
M  V30 17 C -2.162836 1.878888 2.295835 0
M  V30 18 C -2.256656 1.671744 0.917637 0
M  V30 19 C -1.370897 0.803986 0.292032 0
M  V30 20 Cl -1.738188 0.748205 -1.424589 0
M  V30 21 H 0.855090 -3.657326 3.938014 0
M  V30 22 H 1.707523 -2.215919 3.337667 0
M  V30 23 H 0.029862 -2.084409 4.111056 0
M  V30 24 H -1.315023 -4.281272 1.319636 0
M  V30 25 H -0.440494 -4.782002 2.825818 0
M  V30 26 H -1.783610 -3.503086 2.828247 0
M  V30 27 H 0.278669 -3.368927 0.168231 0
M  V30 28 H 1.705940 -3.620012 1.206562 0
M  V30 29 H 1.975116 -1.145520 1.379306 0
M  V30 30 H 2.222693 -1.778505 -0.253795 0
M  V30 31 H 0.170255 -1.986889 -1.361173 0
M  V30 32 H 0.640246 -0.522001 -2.693010 0
M  V30 33 H 1.653496 1.249766 -4.047189 0
M  V30 34 H 2.641189 3.269824 -2.907015 0
M  V30 35 H 2.542678 3.388501 -0.391411 0
M  V30 36 H 1.517264 1.584933 0.828676 0
M  V30 37 H 0.436721 -0.119299 2.794941 0
M  V30 38 H -1.021143 1.294779 4.064768 0
M  V30 39 H -2.809752 2.534628 2.861449 0
M  V30 40 H -3.054534 2.249318 0.492919 0
M  V30 END ATOM
M  V30 BEGIN BOND
M  V30 1 1 1 2
M  V30 2 1 2 3
M  V30 3 1 2 4
M  V30 4 1 4 5
M  V30 5 1 5 6
M  V30 6 1 6 7
M  V30 7 1 6 8
M  V30 8 2 8 9
M  V30 9 1 9 10
M  V30 10 2 10 11
M  V30 11 1 11 12
M  V30 12 2 12 13
M  V30 13 1 6 14
M  V30 14 2 14 15
M  V30 15 1 15 16
M  V30 16 2 16 17
M  V30 17 1 17 18
M  V30 18 2 18 19
M  V30 19 1 19 20
M  V30 20 1 13 8
M  V30 21 1 19 14
M  V30 22 1 1 21
M  V30 23 1 1 22
M  V30 24 1 1 23
M  V30 25 1 3 24
M  V30 26 1 3 25
M  V30 27 1 3 26
M  V30 28 1 4 27
M  V30 29 1 4 28
M  V30 30 1 5 29
M  V30 31 1 5 30
M  V30 32 1 7 31
M  V30 33 1 9 32
M  V30 34 1 10 33
M  V30 35 1 11 34
M  V30 36 1 12 35
M  V30 37 1 13 36
M  V30 38 1 15 37
M  V30 39 1 16 38
M  V30 40 1 17 39
M  V30 41 1 18 40
M  V30 END BOND
M  V30 END CTAB
M  END
>  <Dataset>  (176) 
OralDrugs

>  <Ligand_Instance>  (176) 
nan

>  <PDB_ID>  (176) 
nan

>  <Standardized_SMILES>  (176) 
CN(C)CCC(O)(c1ccccc1)c1ccccc1Cl

>  <Name>  (176) 
Chlophedianol

>  <Pocket>  (176) 
nan

>  <ATP_Site>  (176) 
nan

>  <Peripheral>  (176) 
nan

>  <Num_H_Atoms_ProtBoundConf>  (176) 
nan

>  <Num_Resolved_Atoms>  (176) 
nan

>  <Num_Not_Resolved_Atoms>  (176) 
nan

$$$$
CHEMBL515
     RDKit          3D

  0  0  0  0  0  0  0  0  0  0999 V3000
M  V30 BEGIN CTAB
M  V30 COUNTS 38 38 0 0 0
M  V30 BEGIN ATOM
M  V30 1 O -1.657071 -4.448045 3.224839 0
M  V30 2 C -1.671108 -3.241110 3.673846 0
M  V30 3 O -2.968867 -2.950817 4.012472 0
M  V30 4 C -0.393528 -2.534057 3.710318 0
M  V30 5 C 0.776058 -3.262251 3.141780 0
M  V30 6 C 0.658501 -3.583459 1.657343 0
M  V30 7 C 0.532177 -2.309440 0.866022 0
M  V30 8 C 1.717798 -1.778423 0.421031 0
M  V30 9 C 1.691279 -0.609762 -0.301044 0
M  V30 10 C 0.572154 0.112935 -0.636598 0
M  V30 11 N 0.521238 1.387995 -1.323855 0
M  V30 12 C -0.761795 1.784238 -1.734510 0
M  V30 13 C -1.496648 2.905227 -1.094096 0
M  V30 14 Cl -0.819765 4.505988 -1.296238 0
M  V30 15 C 1.835905 1.976505 -1.377190 0
M  V30 16 C 2.458928 2.416447 -0.107013 0
M  V30 17 Cl 1.629734 3.663972 0.824441 0
M  V30 18 C -0.597117 -0.492318 -0.147290 0
M  V30 19 C -0.646088 -1.661750 0.580382 0
M  V30 20 H -3.732073 -3.218970 3.409165 0
M  V30 21 H -0.133205 -2.324289 4.787427 0
M  V30 22 H -0.461226 -1.506215 3.260886 0
M  V30 23 H 1.652440 -2.545642 3.223877 0
M  V30 24 H 1.082418 -4.143331 3.715258 0
M  V30 25 H -0.189528 -4.237956 1.514976 0
M  V30 26 H 1.560660 -4.154910 1.331500 0
M  V30 27 H 2.676018 -2.263012 0.623895 0
M  V30 28 H 2.621057 -0.254771 -0.655777 0
M  V30 29 H -1.473527 0.912015 -1.802518 0
M  V30 30 H -0.656650 2.121305 -2.864806 0
M  V30 31 H -2.549489 2.956345 -1.519363 0
M  V30 32 H -1.711429 2.671139 -0.003960 0
M  V30 33 H 1.820794 2.866797 -2.089848 0
M  V30 34 H 2.497180 1.246394 -1.902663 0
M  V30 35 H 3.485883 2.871653 -0.323792 0
M  V30 36 H 2.703794 1.548058 0.586899 0
M  V30 37 H -1.589488 -0.111762 -0.262566 0
M  V30 38 H -1.510693 -2.135857 0.958951 0
M  V30 END ATOM
M  V30 BEGIN BOND
M  V30 1 2 1 2
M  V30 2 1 2 3
M  V30 3 1 2 4
M  V30 4 1 4 5
M  V30 5 1 5 6
M  V30 6 1 6 7
M  V30 7 2 7 8
M  V30 8 1 8 9
M  V30 9 2 9 10
M  V30 10 1 10 11
M  V30 11 1 11 12
M  V30 12 1 12 13
M  V30 13 1 13 14
M  V30 14 1 11 15
M  V30 15 1 15 16
M  V30 16 1 16 17
M  V30 17 1 10 18
M  V30 18 2 18 19
M  V30 19 1 19 7
M  V30 20 1 3 20
M  V30 21 1 4 21
M  V30 22 1 4 22
M  V30 23 1 5 23
M  V30 24 1 5 24
M  V30 25 1 6 25
M  V30 26 1 6 26
M  V30 27 1 8 27
M  V30 28 1 9 28
M  V30 29 1 12 29
M  V30 30 1 12 30
M  V30 31 1 13 31
M  V30 32 1 13 32
M  V30 33 1 15 33
M  V30 34 1 15 34
M  V30 35 1 16 35
M  V30 36 1 16 36
M  V30 37 1 18 37
M  V30 38 1 19 38
M  V30 END BOND
M  V30 END CTAB
M  END
>  <Dataset>  (177) 
OralDrugs

>  <Ligand_Instance>  (177) 
nan

>  <PDB_ID>  (177) 
nan

>  <Standardized_SMILES>  (177) 
O=C(O)CCCc1ccc(N(CCCl)CCCl)cc1

>  <Name>  (177) 
Chlorambucil

>  <Pocket>  (177) 
nan

>  <ATP_Site>  (177) 
nan

>  <Peripheral>  (177) 
nan

>  <Num_H_Atoms_ProtBoundConf>  (177) 
nan

>  <Num_Resolved_Atoms>  (177) 
nan

>  <Num_Not_Resolved_Atoms>  (177) 
nan

$$$$
CHEMBL1506
     RDKit          3D

  0  0  0  0  0  0  0  0  0  0999 V3000
M  V30 BEGIN CTAB
M  V30 COUNTS 79 79 0 0 0
M  V30 BEGIN ATOM
M  V30 1 C 1.640169 -0.267602 5.021734 0
M  V30 2 C 0.626398 -1.313102 5.310166 0
M  V30 3 C -0.442053 -1.414182 4.320982 0
M  V30 4 C -0.335382 -1.811889 2.946605 0
M  V30 5 C 0.358823 -1.277686 1.808239 0
M  V30 6 C 1.846588 -1.171236 1.705326 0
M  V30 7 C 2.285769 -0.689466 0.354879 0
M  V30 8 C 1.893950 0.614491 -0.191869 0
M  V30 9 C 2.308248 1.860755 0.463909 0
M  V30 10 C 1.886279 2.321626 1.769609 0
M  V30 11 C 0.627812 2.852918 2.199104 0
M  V30 12 C -0.742484 2.392050 2.111014 0
M  V30 13 C -1.354538 2.381041 0.747242 0
M  V30 14 C -2.796862 1.981790 0.756914 0
M  V30 15 C -3.165315 0.634764 1.218421 0
M  V30 16 C -2.722959 -0.502896 0.416331 0
M  V30 17 O -2.291814 0.262436 -0.476262 0
M  V30 18 O -2.310775 -1.575956 -0.330274 0
M  V30 19 C -1.672977 -1.410326 -1.605797 0
M  V30 20 C -1.387913 -2.792991 -2.148192 0 CFG=1
M  V30 21 N -2.619297 -3.561124 -2.295991 0
M  V30 22 C -2.670934 -4.795075 -1.613430 0
M  V30 23 O -1.665606 -5.169546 -0.918547 0
M  V30 24 C -3.896693 -5.608047 -1.732941 0
M  V30 25 Cl -3.621523 -7.084032 -0.756107 0
M  V30 26 Cl -5.328590 -4.809867 -1.076161 0
M  V30 27 C -0.829180 -2.714728 -3.562034 0 CFG=2
M  V30 28 O -0.618948 -4.022712 -3.960771 0
M  V30 29 C 0.327782 -1.831460 -3.703689 0
M  V30 30 C 0.106855 -0.566531 -4.252411 0
M  V30 31 C 1.141861 0.325650 -4.424000 0
M  V30 32 C 2.406850 -0.046925 -4.045203 0
M  V30 33 N 3.506495 0.839994 -4.202346 0 CHG=1 VAL=4
M  V30 34 O 3.315991 1.966495 -4.689859 0
M  V30 35 O 4.768528 0.484209 -3.830157 0 CHG=-1 VAL=1
M  V30 36 C 2.614825 -1.313846 -3.497962 0
M  V30 37 C 1.584810 -2.240939 -3.311595 0
M  V30 38 H 2.633140 -0.680922 4.748546 0
M  V30 39 H 1.870140 0.363769 5.947361 0
M  V30 40 H 1.314807 0.479544 4.286902 0
M  V30 41 H 1.100232 -2.307880 5.556631 0
M  V30 42 H 0.179601 -1.029427 6.324158 0
M  V30 43 H -1.082669 -0.453116 4.395318 0
M  V30 44 H -1.222986 -2.148644 4.791540 0
M  V30 45 H -0.117089 -2.971718 2.921056 0
M  V30 46 H -1.459762 -1.891328 2.585782 0
M  V30 47 H 0.094332 -1.983680 0.921013 0
M  V30 48 H -0.091869 -0.312713 1.396406 0
M  V30 49 H 2.252566 -2.255415 1.736602 0
M  V30 50 H 2.369217 -0.571693 2.435298 0
M  V30 51 H 3.435576 -0.683445 0.389883 0
M  V30 52 H 2.127764 -1.529571 -0.415058 0
M  V30 53 H 2.432094 0.639518 -1.234565 0
M  V30 54 H 0.834927 0.657007 -0.531925 0
M  V30 55 H 2.163424 2.726432 -0.296667 0
M  V30 56 H 3.478618 1.816979 0.426744 0
M  V30 57 H 2.338522 1.672448 2.612781 0
M  V30 58 H 2.641969 3.246008 1.961360 0
M  V30 59 H 0.787438 3.114696 3.352335 0
M  V30 60 H 0.577997 3.993573 1.864719 0
M  V30 61 H -0.955876 1.436934 2.673589 0
M  V30 62 H -1.409345 3.129422 2.700686 0
M  V30 63 H -1.375566 3.505737 0.458102 0
M  V30 64 H -0.815293 1.925195 -0.055160 0
M  V30 65 H -3.430373 2.714266 1.326038 0
M  V30 66 H -3.188012 2.100680 -0.303594 0
M  V30 67 H -2.876293 0.485831 2.307822 0
M  V30 68 H -4.289879 0.582516 1.245993 0
M  V30 69 H -2.381224 -0.912057 -2.271837 0
M  V30 70 H -0.765824 -0.832443 -1.444060 0
M  V30 71 H -0.640265 -3.267709 -1.515397 0
M  V30 72 H -3.361647 -3.140984 -2.891046 0
M  V30 73 H -4.122045 -5.946710 -2.748441 0
M  V30 74 H -1.705004 -2.357782 -4.181518 0
M  V30 75 H 0.188097 -4.444132 -3.597720 0
M  V30 76 H -0.906614 -0.280732 -4.550630 0
M  V30 77 H 0.920315 1.284435 -4.849569 0
M  V30 78 H 3.619000 -1.561242 -3.216415 0
M  V30 79 H 1.784121 -3.213982 -2.884136 0
M  V30 END ATOM
M  V30 BEGIN BOND
M  V30 1 1 1 2
M  V30 2 1 2 3
M  V30 3 1 3 4
M  V30 4 1 4 5
M  V30 5 1 5 6
M  V30 6 1 6 7
M  V30 7 1 7 8
M  V30 8 1 8 9
M  V30 9 1 9 10
M  V30 10 1 10 11
M  V30 11 1 11 12
M  V30 12 1 12 13
M  V30 13 1 13 14
M  V30 14 1 14 15
M  V30 15 1 15 16
M  V30 16 2 16 17
M  V30 17 1 16 18
M  V30 18 1 18 19
M  V30 19 1 19 20
M  V30 20 1 20 21
M  V30 21 1 21 22
M  V30 22 2 22 23
M  V30 23 1 22 24
M  V30 24 1 24 25
M  V30 25 1 24 26
M  V30 26 1 20 27
M  V30 27 1 27 28
M  V30 28 1 27 29
M  V30 29 2 29 30
M  V30 30 1 30 31
M  V30 31 2 31 32
M  V30 32 1 32 33
M  V30 33 2 33 34
M  V30 34 1 33 35
M  V30 35 1 32 36
M  V30 36 2 36 37
M  V30 37 1 37 29
M  V30 38 1 1 38
M  V30 39 1 1 39
M  V30 40 1 1 40
M  V30 41 1 2 41
M  V30 42 1 2 42
M  V30 43 1 3 43
M  V30 44 1 3 44
M  V30 45 1 4 45
M  V30 46 1 4 46
M  V30 47 1 5 47
M  V30 48 1 5 48
M  V30 49 1 6 49
M  V30 50 1 6 50
M  V30 51 1 7 51
M  V30 52 1 7 52
M  V30 53 1 8 53
M  V30 54 1 8 54
M  V30 55 1 9 55
M  V30 56 1 9 56
M  V30 57 1 10 57
M  V30 58 1 10 58
M  V30 59 1 11 59
M  V30 60 1 11 60
M  V30 61 1 12 61
M  V30 62 1 12 62
M  V30 63 1 13 63
M  V30 64 1 13 64
M  V30 65 1 14 65
M  V30 66 1 14 66
M  V30 67 1 15 67
M  V30 68 1 15 68
M  V30 69 1 19 69
M  V30 70 1 19 70
M  V30 71 1 20 71 CFG=1
M  V30 72 1 21 72
M  V30 73 1 24 73
M  V30 74 1 27 74 CFG=3
M  V30 75 1 28 75
M  V30 76 1 30 76
M  V30 77 1 31 77
M  V30 78 1 36 78
M  V30 79 1 37 79
M  V30 END BOND
M  V30 END CTAB
M  END
>  <Dataset>  (178) 
OralDrugs

>  <Ligand_Instance>  (178) 
nan

>  <PDB_ID>  (178) 
nan

>  <Standardized_SMILES>  (178) 
CCCCCCCCCCCCCCCC(=O)OC[C@@H](NC(=O)C(Cl)Cl)[C@H](O)c1ccc([N+](=O)[O-])cc1

>  <Name>  (178) 
Chloramphenicol Palmitate

>  <Pocket>  (178) 
nan

>  <ATP_Site>  (178) 
nan

>  <Peripheral>  (178) 
nan

>  <Num_H_Atoms_ProtBoundConf>  (178) 
nan

>  <Num_Resolved_Atoms>  (178) 
nan

>  <Num_Not_Resolved_Atoms>  (178) 
nan

$$$$
CHEMBL451
     RDKit          3D

  0  0  0  0  0  0  0  0  0  0999 V3000
M  V30 BEGIN CTAB
M  V30 COUNTS 35 37 0 0 0
M  V30 BEGIN ATOM
M  V30 1 C 0.246923 -4.789089 2.846213 0
M  V30 2 N 0.017347 -3.419924 3.237493 0
M  V30 3 C 0.359648 -2.275601 2.449804 0
M  V30 4 N 0.830717 -2.667633 1.290337 0
M  V30 5 C 1.282444 -1.801477 0.225820 0
M  V30 6 C 2.177522 -2.351984 -0.663645 0
M  V30 7 C 2.629837 -1.556865 -1.692821 0
M  V30 8 C 2.251799 -0.245390 -1.899919 0
M  V30 9 Cl 2.867305 0.710832 -3.232543 0
M  V30 10 C 1.350434 0.324707 -1.012668 0
M  V30 11 C 0.893811 -0.483864 0.029542 0
M  V30 12 C -0.042091 0.287382 0.855142 0
M  V30 13 C -0.727938 1.431807 0.216102 0
M  V30 14 C -0.416714 2.762046 0.410980 0
M  V30 15 C -1.144672 3.725890 -0.254411 0
M  V30 16 C -2.158281 3.301622 -1.090068 0
M  V30 17 C -2.490017 1.980604 -1.302773 0
M  V30 18 C -1.751262 1.005007 -0.627645 0
M  V30 19 N -0.301515 0.034027 2.092252 0 CHG=1 VAL=4
M  V30 20 O -1.226838 0.923361 2.634244 0 CHG=-1 VAL=1
M  V30 21 C 0.128438 -0.944431 3.065464 0
M  V30 22 H -0.480229 -5.432651 3.408600 0
M  V30 23 H 0.066200 -4.943002 1.746766 0
M  V30 24 H 1.304587 -5.027663 3.071881 0
M  V30 25 H -0.437530 -3.206995 4.173065 0
M  V30 26 H 2.469501 -3.364069 -0.504134 0
M  V30 27 H 3.342072 -1.995533 -2.400237 0
M  V30 28 H 0.997263 1.349428 -1.098344 0
M  V30 29 H 0.392680 2.966743 1.085184 0
M  V30 30 H -0.903755 4.769258 -0.104265 0
M  V30 31 H -2.737992 4.054934 -1.619216 0
M  V30 32 H -3.289647 1.683852 -1.963969 0
M  V30 33 H -2.028703 -0.006914 -0.810311 0
M  V30 34 H -0.634575 -1.079569 3.865456 0
M  V30 35 H 1.057391 -0.590300 3.601914 0
M  V30 END ATOM
M  V30 BEGIN BOND
M  V30 1 1 1 2
M  V30 2 1 2 3
M  V30 3 2 3 4
M  V30 4 1 4 5
M  V30 5 2 5 6
M  V30 6 1 6 7
M  V30 7 2 7 8
M  V30 8 1 8 9
M  V30 9 1 8 10
M  V30 10 2 10 11
M  V30 11 1 11 12
M  V30 12 1 12 13
M  V30 13 2 13 14
M  V30 14 1 14 15
M  V30 15 2 15 16
M  V30 16 1 16 17
M  V30 17 2 17 18
M  V30 18 2 12 19
M  V30 19 1 19 20
M  V30 20 1 19 21
M  V30 21 1 21 3
M  V30 22 1 11 5
M  V30 23 1 18 13
M  V30 24 1 1 22
M  V30 25 1 1 23
M  V30 26 1 1 24
M  V30 27 1 2 25
M  V30 28 1 6 26
M  V30 29 1 7 27
M  V30 30 1 10 28
M  V30 31 1 14 29
M  V30 32 1 15 30
M  V30 33 1 16 31
M  V30 34 1 17 32
M  V30 35 1 18 33
M  V30 36 1 21 34
M  V30 37 1 21 35
M  V30 END BOND
M  V30 END CTAB
M  END
>  <Dataset>  (179) 
OralDrugs

>  <Ligand_Instance>  (179) 
nan

>  <PDB_ID>  (179) 
nan

>  <Standardized_SMILES>  (179) 
CNC1=Nc2ccc(Cl)cc2C(c2ccccc2)=[N+]([O-])C1

>  <Name>  (179) 
Chlordiazepoxide

>  <Pocket>  (179) 
nan

>  <ATP_Site>  (179) 
nan

>  <Peripheral>  (179) 
nan

>  <Num_H_Atoms_ProtBoundConf>  (179) 
nan

>  <Num_Resolved_Atoms>  (179) 
nan

>  <Num_Not_Resolved_Atoms>  (179) 
nan

$$$$
CHEMBL76
     RDKit          3D

  0  0  0  0  0  0  0  0  0  0999 V3000
M  V30 BEGIN CTAB
M  V30 COUNTS 48 49 0 0 0
M  V30 BEGIN ATOM
M  V30 1 C -1.664240 -4.412690 1.256879 0
M  V30 2 C -1.240306 -2.986006 1.418416 0
M  V30 3 N -0.252996 -2.859558 2.415272 0
M  V30 4 C -0.602332 -3.090029 3.744508 0
M  V30 5 C -1.517925 -2.014670 4.263013 0
M  V30 6 C 1.094756 -3.013984 2.034087 0
M  V30 7 C 1.688763 -1.967736 1.159501 0
M  V30 8 C 1.650193 -0.589536 1.814629 0
M  V30 9 C 2.273842 0.447856 0.906920 0
M  V30 10 C 3.707118 0.171780 0.570382 0
M  V30 11 N 1.449414 0.822125 -0.210906 0
M  V30 12 C 0.266254 1.592820 -0.201512 0
M  V30 13 C -0.248395 2.149119 0.951404 0
M  V30 14 C -1.391102 2.910796 0.896715 0
M  V30 15 N -2.088137 3.177734 -0.226330 0
M  V30 16 C -1.593591 2.636018 -1.374526 0
M  V30 17 C -2.266459 2.875746 -2.553405 0
M  V30 18 C -1.833491 2.363276 -3.752165 0
M  V30 19 Cl -2.718048 2.686293 -5.248966 0
M  V30 20 C -0.694782 1.590095 -3.775063 0
M  V30 21 C -0.048574 1.371626 -2.584612 0
M  V30 22 C -0.443334 1.861903 -1.360485 0
M  V30 23 H -2.685355 -4.626489 1.638869 0
M  V30 24 H -0.922921 -5.155525 1.670287 0
M  V30 25 H -1.706337 -4.650395 0.177056 0
M  V30 26 H -2.158045 -2.441534 1.788163 0
M  V30 27 H -0.945812 -2.586866 0.431635 0
M  V30 28 H 0.281074 -3.246587 4.409332 0
M  V30 29 H -1.193896 -4.049906 3.838637 0
M  V30 30 H -0.984725 -1.339953 4.965784 0
M  V30 31 H -1.958422 -1.368300 3.484836 0
M  V30 32 H -2.371240 -2.418013 4.837889 0
M  V30 33 H 1.748458 -3.110483 2.939253 0
M  V30 34 H 1.198465 -3.988194 1.490066 0
M  V30 35 H 2.757126 -2.177503 0.951830 0
M  V30 36 H 1.191966 -1.917390 0.150445 0
M  V30 37 H 0.644346 -0.261398 2.073198 0
M  V30 38 H 2.289830 -0.676557 2.706273 0
M  V30 39 H 2.307792 1.382543 1.555585 0
M  V30 40 H 4.139972 1.124654 0.198368 0
M  V30 41 H 4.218748 -0.019896 1.555529 0
M  V30 42 H 3.869072 -0.644684 -0.155918 0
M  V30 43 H 1.874785 0.422010 -1.067815 0
M  V30 44 H 0.199103 2.029351 1.906879 0
M  V30 45 H -1.847242 3.377114 1.776650 0
M  V30 46 H -3.163232 3.481419 -2.547417 0
M  V30 47 H -0.397861 1.214182 -4.734447 0
M  V30 48 H 0.831747 0.758211 -2.689998 0
M  V30 END ATOM
M  V30 BEGIN BOND
M  V30 1 1 1 2
M  V30 2 1 2 3
M  V30 3 1 3 4
M  V30 4 1 4 5
M  V30 5 1 3 6
M  V30 6 1 6 7
M  V30 7 1 7 8
M  V30 8 1 8 9
M  V30 9 1 9 10
M  V30 10 1 9 11
M  V30 11 1 11 12
M  V30 12 2 12 13
M  V30 13 1 13 14
M  V30 14 2 14 15
M  V30 15 1 15 16
M  V30 16 2 16 17
M  V30 17 1 17 18
M  V30 18 1 18 19
M  V30 19 2 18 20
M  V30 20 1 20 21
M  V30 21 2 21 22
M  V30 22 1 22 12
M  V30 23 1 22 16
M  V30 24 1 1 23
M  V30 25 1 1 24
M  V30 26 1 1 25
M  V30 27 1 2 26
M  V30 28 1 2 27
M  V30 29 1 4 28
M  V30 30 1 4 29
M  V30 31 1 5 30
M  V30 32 1 5 31
M  V30 33 1 5 32
M  V30 34 1 6 33
M  V30 35 1 6 34
M  V30 36 1 7 35
M  V30 37 1 7 36
M  V30 38 1 8 37
M  V30 39 1 8 38
M  V30 40 1 9 39
M  V30 41 1 10 40
M  V30 42 1 10 41
M  V30 43 1 10 42
M  V30 44 1 11 43
M  V30 45 1 13 44
M  V30 46 1 14 45
M  V30 47 1 17 46
M  V30 48 1 20 47
M  V30 49 1 21 48
M  V30 END BOND
M  V30 END CTAB
M  END
>  <Dataset>  (180) 
OralDrugs

>  <Ligand_Instance>  (180) 
nan

>  <PDB_ID>  (180) 
nan

>  <Standardized_SMILES>  (180) 
CCN(CC)CCCC(C)Nc1ccnc2cc(Cl)ccc12

>  <Name>  (180) 
Chloroquine

>  <Pocket>  (180) 
nan

>  <ATP_Site>  (180) 
nan

>  <Peripheral>  (180) 
nan

>  <Num_H_Atoms_ProtBoundConf>  (180) 
nan

>  <Num_Resolved_Atoms>  (180) 
nan

>  <Num_Not_Resolved_Atoms>  (180) 
nan

$$$$
CHEMBL842
     RDKit          3D

  0  0  0  0  0  0  0  0  0  0999 V3000
M  V30 BEGIN CTAB
M  V30 COUNTS 23 24 0 0 0
M  V30 BEGIN ATOM
M  V30 1 N 0.021726 -3.993134 -0.224801 0
M  V30 2 S 1.241837 -2.996346 0.490815 0
M  V30 3 O 2.568577 -3.264241 -0.185466 0
M  V30 4 O 1.341407 -3.346627 1.945529 0
M  V30 5 C 0.848785 -1.315292 0.334046 0
M  V30 6 C 0.687531 -0.511976 1.420595 0
M  V30 7 C 0.383373 0.800890 1.420695 0
M  V30 8 C 0.223804 1.367107 0.178515 0
M  V30 9 C 0.369952 0.622820 -0.969856 0
M  V30 10 C 0.686659 -0.738273 -0.909210 0
M  V30 11 Cl 0.882866 -1.725045 -2.324493 0
M  V30 12 N -0.092748 2.710356 -0.098443 0
M  V30 13 C -0.279529 3.609376 0.791465 0
M  V30 14 N -0.194470 3.381903 2.182944 0
M  V30 15 S 0.177773 1.822732 2.825002 0
M  V30 16 O 1.461636 1.878743 3.618455 0
M  V30 17 O -0.961310 1.323796 3.665906 0
M  V30 18 H -0.705927 -4.177296 0.493371 0
M  V30 19 H -0.401481 -3.568729 -1.064376 0
M  V30 20 H 0.821236 -0.992293 2.400723 0
M  V30 21 H 0.262058 0.987255 -1.995333 0
M  V30 22 H -0.521986 4.638374 0.584079 0
M  V30 23 H -0.307123 3.962743 3.028951 0
M  V30 END ATOM
M  V30 BEGIN BOND
M  V30 1 1 1 2
M  V30 2 2 2 3
M  V30 3 2 2 4
M  V30 4 1 2 5
M  V30 5 2 5 6
M  V30 6 1 6 7
M  V30 7 2 7 8
M  V30 8 1 8 9
M  V30 9 2 9 10
M  V30 10 1 10 11
M  V30 11 1 8 12
M  V30 12 2 12 13
M  V30 13 1 13 14
M  V30 14 1 14 15
M  V30 15 2 15 16
M  V30 16 2 15 17
M  V30 17 1 10 5
M  V30 18 1 15 7
M  V30 19 1 1 18
M  V30 20 1 1 19
M  V30 21 1 6 20
M  V30 22 1 9 21
M  V30 23 1 13 22
M  V30 24 1 14 23
M  V30 END BOND
M  V30 END CTAB
M  END
>  <Dataset>  (181) 
OralDrugs

>  <Ligand_Instance>  (181) 
nan

>  <PDB_ID>  (181) 
nan

>  <Standardized_SMILES>  (181) 
NS(=O)(=O)c1cc2c(cc1Cl)N=CNS2(=O)=O

>  <Name>  (181) 
Chlorothiazide

>  <Pocket>  (181) 
nan

>  <ATP_Site>  (181) 
nan

>  <Peripheral>  (181) 
nan

>  <Num_H_Atoms_ProtBoundConf>  (181) 
nan

>  <Num_Resolved_Atoms>  (181) 
nan

>  <Num_Not_Resolved_Atoms>  (181) 
nan

$$$$
CHEMBL1200761
     RDKit          3D

  0  0  0  0  0  0  0  0  0  0999 V3000
M  V30 BEGIN CTAB
M  V30 COUNTS 48 50 0 0 0
M  V30 BEGIN ATOM
M  V30 1 C -1.902629 -6.184373 3.181857 0
M  V30 2 O -1.067278 -6.295175 2.032745 0
M  V30 3 C -0.402349 -5.179672 1.552339 0
M  V30 4 C 0.442040 -5.158997 0.441158 0
M  V30 5 C 1.069397 -3.995313 0.027500 0
M  V30 6 C 0.859667 -2.802317 0.732628 0
M  V30 7 C 1.537591 -1.566939 0.310720 0
M  V30 8 Cl 3.221956 -1.872985 -0.040238 0
M  V30 9 C 0.935033 -0.395195 0.217967 0
M  V30 10 C 1.557641 0.879112 -0.194103 0
M  V30 11 C 2.848348 1.112088 0.237746 0
M  V30 12 C 3.425794 2.299069 -0.164307 0
M  V30 13 C 2.815908 3.274689 -0.964567 0
M  V30 14 O 3.461786 4.444512 -1.327748 0
M  V30 15 C 4.783469 4.620653 -0.855716 0
M  V30 16 C 1.529572 2.947594 -1.342042 0
M  V30 17 C 0.883025 1.786298 -0.984413 0
M  V30 18 C -0.489147 -0.227666 0.479035 0
M  V30 19 C -0.946462 0.845186 1.251664 0
M  V30 20 C -2.329877 0.867437 1.376975 0
M  V30 21 C -3.271022 0.010798 0.863013 0
M  V30 22 O -4.614134 0.223476 1.114633 0
M  V30 23 C -5.010100 1.335629 1.909393 0
M  V30 24 C -2.729438 -1.008929 0.119873 0
M  V30 25 C -1.372993 -1.163933 -0.094104 0
M  V30 26 C 0.033596 -2.739847 1.850163 0
M  V30 27 C -0.531208 -3.954926 2.162790 0
M  V30 28 H -2.238257 -7.165537 3.541260 0
M  V30 29 H -2.771598 -5.497767 2.984780 0
M  V30 30 H -1.345762 -5.713816 4.022004 0
M  V30 31 H 0.583771 -6.106675 -0.089933 0
M  V30 32 H 1.722506 -4.021039 -0.846486 0
M  V30 33 H 3.459866 0.474053 0.857061 0
M  V30 34 H 4.447500 2.534222 0.146978 0
M  V30 35 H 5.522485 3.964724 -1.357591 0
M  V30 36 H 5.066438 5.698339 -1.049274 0
M  V30 37 H 4.781301 4.539382 0.249884 0
M  V30 38 H 1.026107 3.682465 -1.962851 0
M  V30 39 H -0.131887 1.585678 -1.316953 0
M  V30 40 H -0.303333 1.561966 1.693150 0
M  V30 41 H -2.687419 1.713228 1.986783 0
M  V30 42 H -4.725999 2.271129 1.374308 0
M  V30 43 H -4.474983 1.361829 2.885552 0
M  V30 44 H -6.116692 1.367668 2.027602 0
M  V30 45 H -3.424871 -1.726429 -0.318839 0
M  V30 46 H -1.036466 -1.990850 -0.696764 0
M  V30 47 H -0.158821 -1.861088 2.426829 0
M  V30 48 H -1.188047 -3.938970 3.042266 0
M  V30 END ATOM
M  V30 BEGIN BOND
M  V30 1 1 1 2
M  V30 2 1 2 3
M  V30 3 2 3 4
M  V30 4 1 4 5
M  V30 5 2 5 6
M  V30 6 1 6 7
M  V30 7 1 7 8
M  V30 8 2 7 9 CFG=2
M  V30 9 1 9 10
M  V30 10 2 10 11
M  V30 11 1 11 12
M  V30 12 2 12 13
M  V30 13 1 13 14
M  V30 14 1 14 15
M  V30 15 1 13 16
M  V30 16 2 16 17
M  V30 17 1 9 18
M  V30 18 2 18 19
M  V30 19 1 19 20
M  V30 20 2 20 21
M  V30 21 1 21 22
M  V30 22 1 22 23
M  V30 23 1 21 24
M  V30 24 2 24 25
M  V30 25 1 6 26
M  V30 26 2 26 27
M  V30 27 1 27 3
M  V30 28 1 17 10
M  V30 29 1 25 18
M  V30 30 1 1 28
M  V30 31 1 1 29
M  V30 32 1 1 30
M  V30 33 1 4 31
M  V30 34 1 5 32
M  V30 35 1 11 33
M  V30 36 1 12 34
M  V30 37 1 15 35
M  V30 38 1 15 36
M  V30 39 1 15 37
M  V30 40 1 16 38
M  V30 41 1 17 39
M  V30 42 1 19 40
M  V30 43 1 20 41
M  V30 44 1 23 42
M  V30 45 1 23 43
M  V30 46 1 23 44
M  V30 47 1 24 45
M  V30 48 1 25 46
M  V30 49 1 26 47
M  V30 50 1 27 48
M  V30 END BOND
M  V30 END CTAB
M  END
>  <Dataset>  (182) 
OralDrugs

>  <Ligand_Instance>  (182) 
nan

>  <PDB_ID>  (182) 
nan

>  <Standardized_SMILES>  (182) 
COc1ccc(C(Cl)=C(c2ccc(OC)cc2)c2ccc(OC)cc2)cc1

>  <Name>  (182) 
Chlorotrianisene

>  <Pocket>  (182) 
nan

>  <ATP_Site>  (182) 
nan

>  <Peripheral>  (182) 
nan

>  <Num_H_Atoms_ProtBoundConf>  (182) 
nan

>  <Num_Resolved_Atoms>  (182) 
nan

>  <Num_Not_Resolved_Atoms>  (182) 
nan

$$$$
CHEMBL607710
     RDKit          3D

  0  0  0  0  0  0  0  0  0  0999 V3000
M  V30 BEGIN CTAB
M  V30 COUNTS 28 28 0 0 0
M  V30 BEGIN ATOM
M  V30 1 N -1.724732 -2.284225 4.347305 0
M  V30 2 C -0.836189 -2.825920 3.394708 0
M  V30 3 O 0.089290 -3.428960 3.978768 0
M  V30 4 O -0.978065 -2.702190 2.035084 0
M  V30 5 C -0.126880 -3.210413 1.044646 0
M  V30 6 C 1.266118 -2.658720 1.053210 0
M  V30 7 O 1.895816 -2.938923 2.248364 0
M  V30 8 C 1.285796 -1.158806 0.843846 0
M  V30 9 O 0.658244 -0.794232 -0.361385 0
M  V30 10 C 0.600174 0.553681 -0.687872 0
M  V30 11 C -0.048873 0.774177 -1.908844 0
M  V30 12 C -0.207983 2.054498 -2.408736 0
M  V30 13 C 0.295470 3.127504 -1.665134 0
M  V30 14 Cl 0.174013 4.803285 -2.161007 0
M  V30 15 C 0.935389 2.911843 -0.461617 0
M  V30 16 C 1.087115 1.630208 0.025005 0
M  V30 17 H -2.143329 -2.812563 5.168752 0
M  V30 18 H -2.310468 -1.550102 4.795932 0
M  V30 19 H -0.077042 -4.339476 1.163976 0
M  V30 20 H -0.634775 -3.081922 0.068600 0
M  V30 21 H 1.846115 -3.112215 0.208098 0
M  V30 22 H 2.124026 -2.094156 2.703581 0
M  V30 23 H 2.371127 -0.882662 0.737127 0
M  V30 24 H 0.916867 -0.633194 1.730774 0
M  V30 25 H -0.472046 0.027284 -2.559237 0
M  V30 26 H -0.697100 2.295764 -3.341156 0
M  V30 27 H 1.345582 3.718454 0.155314 0
M  V30 28 H 1.571943 1.358998 0.954506 0
M  V30 END ATOM
M  V30 BEGIN BOND
M  V30 1 1 1 2
M  V30 2 2 2 3
M  V30 3 1 2 4
M  V30 4 1 4 5
M  V30 5 1 5 6
M  V30 6 1 6 7
M  V30 7 1 6 8
M  V30 8 1 8 9
M  V30 9 1 9 10
M  V30 10 2 10 11
M  V30 11 1 11 12
M  V30 12 2 12 13
M  V30 13 1 13 14
M  V30 14 1 13 15
M  V30 15 2 15 16
M  V30 16 1 16 10
M  V30 17 1 1 17
M  V30 18 1 1 18
M  V30 19 1 5 19
M  V30 20 1 5 20
M  V30 21 1 6 21
M  V30 22 1 7 22
M  V30 23 1 8 23
M  V30 24 1 8 24
M  V30 25 1 11 25
M  V30 26 1 12 26
M  V30 27 1 15 27
M  V30 28 1 16 28
M  V30 END BOND
M  V30 END CTAB
M  END
>  <Dataset>  (183) 
OralDrugs

>  <Ligand_Instance>  (183) 
nan

>  <PDB_ID>  (183) 
nan

>  <Standardized_SMILES>  (183) 
NC(=O)OCC(O)COc1ccc(Cl)cc1

>  <Name>  (183) 
Chlorphenesin Carbamate

>  <Pocket>  (183) 
nan

>  <ATP_Site>  (183) 
nan

>  <Peripheral>  (183) 
nan

>  <Num_H_Atoms_ProtBoundConf>  (183) 
nan

>  <Num_Resolved_Atoms>  (183) 
nan

>  <Num_Not_Resolved_Atoms>  (183) 
nan

$$$$
CHEMBL505
     RDKit          3D

  0  0  0  0  0  0  0  0  0  0999 V3000
M  V30 BEGIN CTAB
M  V30 COUNTS 38 39 0 0 0
M  V30 BEGIN ATOM
M  V30 1 C -2.283474 -3.093315 1.385127 0
M  V30 2 N -0.968977 -3.507788 1.009849 0
M  V30 3 C -1.071880 -4.696207 0.185840 0
M  V30 4 C -0.136621 -2.509621 0.418887 0
M  V30 5 C 0.262117 -1.420866 1.384419 0
M  V30 6 C 1.139413 -0.379377 0.789875 0
M  V30 7 C 0.598889 0.359804 -0.344627 0
M  V30 8 C -0.759243 0.534979 -0.490236 0
M  V30 9 C -1.335460 1.231495 -1.558321 0
M  V30 10 C -0.473271 1.771618 -2.519425 0
M  V30 11 Cl -1.218592 2.639479 -3.847482 0
M  V30 12 C 0.906598 1.600288 -2.381957 0
M  V30 13 C 1.433147 0.899662 -1.302115 0
M  V30 14 C 1.461694 0.612826 1.871055 0
M  V30 15 C 2.783689 1.052917 2.013131 0
M  V30 16 C 2.993469 1.969678 3.028713 0
M  V30 17 C 1.996746 2.437211 3.858475 0
M  V30 18 C 0.716852 1.961911 3.662772 0
M  V30 19 N 0.475629 1.062763 2.676571 0
M  V30 20 H -2.332892 -2.747149 2.458826 0
M  V30 21 H -2.934344 -4.017340 1.397958 0
M  V30 22 H -2.779334 -2.385319 0.701358 0
M  V30 23 H -0.390254 -4.687423 -0.688507 0
M  V30 24 H -2.116838 -4.933858 -0.092962 0
M  V30 25 H -0.738537 -5.546162 0.840508 0
M  V30 26 H -0.655908 -2.120507 -0.479804 0
M  V30 27 H 0.777854 -3.036672 0.043540 0
M  V30 28 H 0.844868 -1.914509 2.195673 0
M  V30 29 H -0.586962 -0.936783 1.864878 0
M  V30 30 H 2.085345 -0.857760 0.467384 0
M  V30 31 H -1.465555 0.144229 0.213724 0
M  V30 32 H -2.411895 1.365206 -1.664169 0
M  V30 33 H 1.485131 2.060559 -3.184733 0
M  V30 34 H 2.518041 0.813207 -1.274436 0
M  V30 35 H 3.585147 0.694011 1.366722 0
M  V30 36 H 4.023213 2.314506 3.143485 0
M  V30 37 H 2.183736 3.159461 4.650846 0
M  V30 38 H -0.136820 2.283713 4.281339 0
M  V30 END ATOM
M  V30 BEGIN BOND
M  V30 1 1 1 2
M  V30 2 1 2 3
M  V30 3 1 2 4
M  V30 4 1 4 5
M  V30 5 1 5 6
M  V30 6 1 6 7
M  V30 7 2 7 8
M  V30 8 1 8 9
M  V30 9 2 9 10
M  V30 10 1 10 11
M  V30 11 1 10 12
M  V30 12 2 12 13
M  V30 13 1 6 14
M  V30 14 2 14 15
M  V30 15 1 15 16
M  V30 16 2 16 17
M  V30 17 1 17 18
M  V30 18 2 18 19
M  V30 19 1 13 7
M  V30 20 1 19 14
M  V30 21 1 1 20
M  V30 22 1 1 21
M  V30 23 1 1 22
M  V30 24 1 3 23
M  V30 25 1 3 24
M  V30 26 1 3 25
M  V30 27 1 4 26
M  V30 28 1 4 27
M  V30 29 1 5 28
M  V30 30 1 5 29
M  V30 31 1 6 30
M  V30 32 1 8 31
M  V30 33 1 9 32
M  V30 34 1 12 33
M  V30 35 1 13 34
M  V30 36 1 15 35
M  V30 37 1 16 36
M  V30 38 1 17 37
M  V30 39 1 18 38
M  V30 END BOND
M  V30 END CTAB
M  END
>  <Dataset>  (184) 
OralDrugs

>  <Ligand_Instance>  (184) 
nan

>  <PDB_ID>  (184) 
nan

>  <Standardized_SMILES>  (184) 
CN(C)CCC(c1ccc(Cl)cc1)c1ccccn1

>  <Name>  (184) 
Chlorpheniramine

>  <Pocket>  (184) 
nan

>  <ATP_Site>  (184) 
nan

>  <Peripheral>  (184) 
nan

>  <Num_H_Atoms_ProtBoundConf>  (184) 
nan

>  <Num_Resolved_Atoms>  (184) 
nan

>  <Num_Not_Resolved_Atoms>  (184) 
nan

$$$$
CHEMBL71
     RDKit          3D

  0  0  0  0  0  0  0  0  0  0999 V3000
M  V30 BEGIN CTAB
M  V30 COUNTS 40 42 0 0 0
M  V30 BEGIN ATOM
M  V30 1 C 0.022873 -3.548592 1.977934 0
M  V30 2 N 0.546921 -3.586885 0.623362 0
M  V30 3 C -0.351671 -4.355352 -0.214704 0
M  V30 4 C 0.658990 -2.249589 0.064547 0
M  V30 5 C -0.683139 -1.625336 -0.179484 0
M  V30 6 C -0.644679 -0.224040 -0.748869 0
M  V30 7 N 0.076309 0.621061 0.159354 0
M  V30 8 C 1.450624 0.855963 -0.000884 0
M  V30 9 C 2.169663 0.336179 -1.055367 0
M  V30 10 C 3.514407 0.516444 -1.299186 0
M  V30 11 C 4.242182 1.296903 -0.407134 0
M  V30 12 C 3.584062 1.849421 0.672778 0
M  V30 13 C 2.245057 1.609624 0.824343 0
M  V30 14 S 1.540930 2.403379 2.251412 0
M  V30 15 C -0.174464 1.959250 2.236398 0
M  V30 16 C -0.874413 2.466544 3.273116 0
M  V30 17 C -2.236678 2.185993 3.392935 0
M  V30 18 C -2.799962 1.373841 2.401756 0
M  V30 19 Cl -4.503632 1.043343 2.585127 0
M  V30 20 C -1.998030 0.906110 1.383252 0
M  V30 21 C -0.653131 1.170428 1.244784 0
M  V30 22 H 0.218765 -4.554710 2.410239 0
M  V30 23 H 0.439201 -2.723939 2.571299 0
M  V30 24 H -1.088959 -3.475248 1.862656 0
M  V30 25 H -1.387906 -4.097728 0.088172 0
M  V30 26 H -0.230165 -4.067434 -1.277613 0
M  V30 27 H -0.228330 -5.467202 -0.069319 0
M  V30 28 H 1.202091 -1.599892 0.799741 0
M  V30 29 H 1.178114 -2.375164 -0.894480 0
M  V30 30 H -1.238761 -1.681002 0.778465 0
M  V30 31 H -1.289765 -2.300154 -0.864678 0
M  V30 32 H -1.687909 0.124821 -0.966868 0
M  V30 33 H -0.202161 -0.353423 -1.753030 0
M  V30 34 H 1.721208 -0.272383 -1.806952 0
M  V30 35 H 4.059944 0.099087 -2.132736 0
M  V30 36 H 5.298265 1.462911 -0.560196 0
M  V30 37 H 4.193695 2.444961 1.335096 0
M  V30 38 H -0.473944 3.104528 4.067982 0
M  V30 39 H -2.827906 2.576298 4.207611 0
M  V30 40 H -2.584215 0.302542 0.724966 0
M  V30 END ATOM
M  V30 BEGIN BOND
M  V30 1 1 1 2
M  V30 2 1 2 3
M  V30 3 1 2 4
M  V30 4 1 4 5
M  V30 5 1 5 6
M  V30 6 1 6 7
M  V30 7 1 7 8
M  V30 8 2 8 9
M  V30 9 1 9 10
M  V30 10 2 10 11
M  V30 11 1 11 12
M  V30 12 2 12 13
M  V30 13 1 13 14
M  V30 14 1 14 15
M  V30 15 2 15 16
M  V30 16 1 16 17
M  V30 17 2 17 18
M  V30 18 1 18 19
M  V30 19 1 18 20
M  V30 20 2 20 21
M  V30 21 1 21 7
M  V30 22 1 13 8
M  V30 23 1 21 15
M  V30 24 1 1 22
M  V30 25 1 1 23
M  V30 26 1 1 24
M  V30 27 1 3 25
M  V30 28 1 3 26
M  V30 29 1 3 27
M  V30 30 1 4 28
M  V30 31 1 4 29
M  V30 32 1 5 30
M  V30 33 1 5 31
M  V30 34 1 6 32
M  V30 35 1 6 33
M  V30 36 1 9 34
M  V30 37 1 10 35
M  V30 38 1 11 36
M  V30 39 1 12 37
M  V30 40 1 16 38
M  V30 41 1 17 39
M  V30 42 1 20 40
M  V30 END BOND
M  V30 END CTAB
M  END
>  <Dataset>  (185) 
OralDrugs

>  <Ligand_Instance>  (185) 
nan

>  <PDB_ID>  (185) 
nan

>  <Standardized_SMILES>  (185) 
CN(C)CCCN1c2ccccc2Sc2ccc(Cl)cc21

>  <Name>  (185) 
Chlorpromazine

>  <Pocket>  (185) 
nan

>  <ATP_Site>  (185) 
nan

>  <Peripheral>  (185) 
nan

>  <Num_H_Atoms_ProtBoundConf>  (185) 
nan

>  <Num_Resolved_Atoms>  (185) 
nan

>  <Num_Not_Resolved_Atoms>  (185) 
nan

$$$$
CHEMBL498
     RDKit          3D

  0  0  0  0  0  0  0  0  0  0999 V3000
M  V30 BEGIN CTAB
M  V30 COUNTS 30 30 0 0 0
M  V30 BEGIN ATOM
M  V30 1 C -2.519401 -2.847282 1.514853 0
M  V30 2 C -1.261194 -2.641776 2.334595 0
M  V30 3 C -0.178629 -3.492330 1.705580 0
M  V30 4 N 0.064104 -3.109964 0.336394 0
M  V30 5 C 0.491751 -1.797693 -0.030875 0
M  V30 6 O 0.669083 -0.927951 0.859396 0
M  V30 7 N 0.738293 -1.395200 -1.376348 0
M  V30 8 S 1.257532 0.220788 -1.749920 0
M  V30 9 O 0.244266 0.927732 -2.610187 0
M  V30 10 O 2.583094 0.196280 -2.448431 0
M  V30 11 C 1.386600 1.121183 -0.246396 0
M  V30 12 C 2.530027 1.194729 0.521559 0
M  V30 13 C 2.534412 1.926428 1.686172 0
M  V30 14 C 1.411525 2.596915 2.111620 0
M  V30 15 Cl 1.359873 3.541213 3.581958 0
M  V30 16 C 0.225521 2.560707 1.378722 0
M  V30 17 C 0.286187 1.800480 0.205843 0
M  V30 18 H -2.203769 -2.747848 0.451000 0
M  V30 19 H -2.839016 -3.898858 1.671852 0
M  V30 20 H -3.330697 -2.147587 1.800895 0
M  V30 21 H -0.980577 -1.580173 2.428315 0
M  V30 22 H -1.454640 -3.061864 3.352346 0
M  V30 23 H 0.745063 -3.539566 2.310623 0
M  V30 24 H -0.593787 -4.532457 1.682833 0
M  V30 25 H -0.056031 -3.766397 -0.482011 0
M  V30 26 H 0.601059 -2.091876 -2.140722 0
M  V30 27 H 3.413143 0.651487 0.161678 0
M  V30 28 H 3.407634 1.995825 2.293663 0
M  V30 29 H -0.689833 3.065871 1.659798 0
M  V30 30 H -0.638716 1.762043 -0.381901 0
M  V30 END ATOM
M  V30 BEGIN BOND
M  V30 1 1 1 2
M  V30 2 1 2 3
M  V30 3 1 3 4
M  V30 4 1 4 5
M  V30 5 2 5 6
M  V30 6 1 5 7
M  V30 7 1 7 8
M  V30 8 2 8 9
M  V30 9 2 8 10
M  V30 10 1 8 11
M  V30 11 2 11 12
M  V30 12 1 12 13
M  V30 13 2 13 14
M  V30 14 1 14 15
M  V30 15 1 14 16
M  V30 16 2 16 17
M  V30 17 1 17 11
M  V30 18 1 1 18
M  V30 19 1 1 19
M  V30 20 1 1 20
M  V30 21 1 2 21
M  V30 22 1 2 22
M  V30 23 1 3 23
M  V30 24 1 3 24
M  V30 25 1 4 25
M  V30 26 1 7 26
M  V30 27 1 12 27
M  V30 28 1 13 28
M  V30 29 1 16 29
M  V30 30 1 17 30
M  V30 END BOND
M  V30 END CTAB
M  END
>  <Dataset>  (186) 
OralDrugs

>  <Ligand_Instance>  (186) 
nan

>  <PDB_ID>  (186) 
nan

>  <Standardized_SMILES>  (186) 
CCCNC(=O)NS(=O)(=O)c1ccc(Cl)cc1

>  <Name>  (186) 
Chlorpropamide

>  <Pocket>  (186) 
nan

>  <ATP_Site>  (186) 
nan

>  <Peripheral>  (186) 
nan

>  <Num_H_Atoms_ProtBoundConf>  (186) 
nan

>  <Num_Resolved_Atoms>  (186) 
nan

>  <Num_Not_Resolved_Atoms>  (186) 
nan

$$$$
CHEMBL908
     RDKit          3D

  0  0  0  0  0  0  0  0  0  0999 V3000
M  V30 BEGIN CTAB
M  V30 COUNTS 39 41 0 0 0
M  V30 BEGIN ATOM
M  V30 1 C -0.777980 -4.413361 2.091079 0
M  V30 2 N -0.712590 -4.140486 0.713151 0
M  V30 3 C -1.570254 -4.840701 -0.161974 0
M  V30 4 C 0.006348 -3.037214 0.245927 0
M  V30 5 C -0.687673 -1.660991 0.674152 0
M  V30 6 C 0.195966 -0.645031 0.108335 0
M  V30 7 C 0.617980 0.538300 0.460071 0
M  V30 8 C 1.543907 1.280982 -0.362123 0
M  V30 9 C 1.922386 0.799352 -1.594593 0
M  V30 10 C 2.742832 1.452766 -2.456003 0
M  V30 11 C 3.248457 2.700411 -2.085169 0
M  V30 12 C 2.890159 3.211757 -0.856002 0
M  V30 13 C 2.064224 2.492075 -0.053638 0
M  V30 14 S 1.742623 3.246552 1.520990 0
M  V30 15 C 0.493031 2.228226 2.304181 0
M  V30 16 C -0.025605 2.790768 3.434826 0
M  V30 17 C -1.039167 2.067989 4.066262 0
M  V30 18 C -1.475054 0.842867 3.542388 0
M  V30 19 Cl -2.749137 0.125858 4.501870 0
M  V30 20 C -0.842720 0.418490 2.388789 0
M  V30 21 C 0.151227 1.047421 1.708658 0
M  V30 22 H -1.851080 -4.597990 2.384861 0
M  V30 23 H -0.375873 -3.660442 2.762967 0
M  V30 24 H -0.229782 -5.363935 2.334970 0
M  V30 25 H -2.617878 -4.669755 0.099064 0
M  V30 26 H -1.328062 -4.514613 -1.205266 0
M  V30 27 H -1.361442 -5.942334 -0.063865 0
M  V30 28 H 1.019475 -2.989987 0.627469 0
M  V30 29 H -0.065143 -2.960581 -0.848774 0
M  V30 30 H -1.670528 -1.794236 0.286905 0
M  V30 31 H -0.522434 -1.894431 1.772068 0
M  V30 32 H 0.540757 -1.014860 -0.840887 0
M  V30 33 H 1.616114 -0.130424 -2.012678 0
M  V30 34 H 3.071738 1.122452 -3.433545 0
M  V30 35 H 3.906388 3.261851 -2.740361 0
M  V30 36 H 3.299477 4.177603 -0.600515 0
M  V30 37 H 0.291918 3.729443 3.858087 0
M  V30 38 H -1.450056 2.524184 4.977753 0
M  V30 39 H -1.425583 -0.428778 2.196685 0
M  V30 END ATOM
M  V30 BEGIN BOND
M  V30 1 1 1 2
M  V30 2 1 2 3
M  V30 3 1 2 4
M  V30 4 1 4 5
M  V30 5 1 5 6
M  V30 6 2 6 7
M  V30 7 1 7 8
M  V30 8 2 8 9
M  V30 9 1 9 10
M  V30 10 2 10 11
M  V30 11 1 11 12
M  V30 12 2 12 13
M  V30 13 1 13 14
M  V30 14 1 14 15
M  V30 15 2 15 16
M  V30 16 1 16 17
M  V30 17 2 17 18
M  V30 18 1 18 19
M  V30 19 1 18 20
M  V30 20 2 20 21
M  V30 21 1 21 7
M  V30 22 1 13 8
M  V30 23 1 21 15
M  V30 24 1 1 22
M  V30 25 1 1 23
M  V30 26 1 1 24
M  V30 27 1 3 25
M  V30 28 1 3 26
M  V30 29 1 3 27
M  V30 30 1 4 28
M  V30 31 1 4 29
M  V30 32 1 5 30
M  V30 33 1 5 31
M  V30 34 1 6 32
M  V30 35 1 9 33
M  V30 36 1 10 34
M  V30 37 1 11 35
M  V30 38 1 12 36
M  V30 39 1 16 37
M  V30 40 1 17 38
M  V30 41 1 20 39
M  V30 END BOND
M  V30 END CTAB
M  END
>  <Dataset>  (187) 
OralDrugs

>  <Ligand_Instance>  (187) 
nan

>  <PDB_ID>  (187) 
nan

>  <Standardized_SMILES>  (187) 
CN(C)CC/C=C1/c2ccccc2Sc2ccc(Cl)cc21

>  <Name>  (187) 
Chlorprothixene

>  <Pocket>  (187) 
nan

>  <ATP_Site>  (187) 
nan

>  <Peripheral>  (187) 
nan

>  <Num_H_Atoms_ProtBoundConf>  (187) 
nan

>  <Num_Resolved_Atoms>  (187) 
nan

>  <Num_Not_Resolved_Atoms>  (187) 
nan

$$$$
CHEMBL1055
     RDKit          3D

  0  0  0  0  0  0  0  0  0  0999 V3000
M  V30 BEGIN CTAB
M  V30 COUNTS 33 35 0 0 0
M  V30 BEGIN ATOM
M  V30 1 N 1.691424 -3.139873 2.687475 0
M  V30 2 S 0.006712 -3.492610 2.717774 0
M  V30 3 O -0.543030 -3.096466 4.065918 0
M  V30 4 O -0.242981 -4.955578 2.557641 0
M  V30 5 C -0.813259 -2.555558 1.489922 0
M  V30 6 C -0.218267 -1.675250 0.633864 0
M  V30 7 C -0.963407 -0.984724 -0.300286 0
M  V30 8 C -0.239449 -0.043923 -1.195377 0
M  V30 9 O -1.005836 0.432194 -2.230773 0
M  V30 10 N 0.962662 -0.712796 -1.691049 0
M  V30 11 C 2.114815 -0.032194 -1.158990 0
M  V30 12 O 3.352231 -0.268350 -1.325897 0
M  V30 13 C 1.697913 1.082090 -0.312808 0
M  V30 14 C 2.320917 2.055411 0.438174 0
M  V30 15 C 1.553318 2.962869 1.123382 0
M  V30 16 C 0.173107 2.965785 1.110466 0
M  V30 17 C -0.456595 1.979910 0.349836 0
M  V30 18 C 0.317119 1.048405 -0.353805 0
M  V30 19 C -2.341753 -1.210767 -0.346567 0
M  V30 20 C -2.953408 -2.102605 0.518338 0
M  V30 21 C -2.170586 -2.783185 1.449599 0
M  V30 22 Cl -3.105391 -3.869962 2.461996 0
M  V30 23 H 2.154031 -3.720190 1.935200 0
M  V30 24 H 1.888321 -2.152864 2.468674 0
M  V30 25 H 0.833190 -1.580200 0.755883 0
M  V30 26 H -1.637945 -0.212570 -2.604119 0
M  V30 27 H 1.057644 -1.531467 -2.314470 0
M  V30 28 H 3.409547 2.068149 0.459284 0
M  V30 29 H 2.023614 3.745985 1.726970 0
M  V30 30 H -0.438674 3.681828 1.651684 0
M  V30 31 H -1.533364 1.991240 0.346511 0
M  V30 32 H -2.914411 -0.665656 -1.081244 0
M  V30 33 H -4.037229 -2.209149 0.401902 0
M  V30 END ATOM
M  V30 BEGIN BOND
M  V30 1 1 1 2
M  V30 2 2 2 3
M  V30 3 2 2 4
M  V30 4 1 2 5
M  V30 5 2 5 6
M  V30 6 1 6 7
M  V30 7 1 7 8
M  V30 8 1 8 9
M  V30 9 1 8 10
M  V30 10 1 10 11
M  V30 11 2 11 12
M  V30 12 1 11 13
M  V30 13 2 13 14
M  V30 14 1 14 15
M  V30 15 2 15 16
M  V30 16 1 16 17
M  V30 17 2 17 18
M  V30 18 2 7 19
M  V30 19 1 19 20
M  V30 20 2 20 21
M  V30 21 1 21 22
M  V30 22 1 21 5
M  V30 23 1 18 8
M  V30 24 1 18 13
M  V30 25 1 1 23
M  V30 26 1 1 24
M  V30 27 1 6 25
M  V30 28 1 9 26
M  V30 29 1 10 27
M  V30 30 1 14 28
M  V30 31 1 15 29
M  V30 32 1 16 30
M  V30 33 1 17 31
M  V30 34 1 19 32
M  V30 35 1 20 33
M  V30 END BOND
M  V30 END CTAB
M  END
>  <Dataset>  (188) 
OralDrugs

>  <Ligand_Instance>  (188) 
nan

>  <PDB_ID>  (188) 
nan

>  <Standardized_SMILES>  (188) 
NS(=O)(=O)c1cc(C2(O)NC(=O)c3ccccc32)ccc1Cl

>  <Name>  (188) 
Chlorthalidone

>  <Pocket>  (188) 
nan

>  <ATP_Site>  (188) 
nan

>  <Peripheral>  (188) 
nan

>  <Num_H_Atoms_ProtBoundConf>  (188) 
nan

>  <Num_Resolved_Atoms>  (188) 
nan

>  <Num_Not_Resolved_Atoms>  (188) 
nan

$$$$
CHEMBL1371
     RDKit          3D

  0  0  0  0  0  0  0  0  0  0999 V3000
M  V30 BEGIN CTAB
M  V30 COUNTS 15 16 0 0 0
M  V30 BEGIN ATOM
M  V30 1 O -1.577805 -2.313080 2.261901 0
M  V30 2 C -0.612225 -1.616388 1.830652 0
M  V30 3 N 0.595617 -1.790645 1.272684 0
M  V30 4 C 1.142013 -0.589449 1.042942 0
M  V30 5 C 2.366539 -0.295766 0.485598 0
M  V30 6 C 2.694448 1.035542 0.358530 0
M  V30 7 Cl 4.197393 1.566774 -0.322518 0
M  V30 8 C 1.790252 2.002057 0.791030 0
M  V30 9 C 0.570892 1.670719 1.345336 0
M  V30 10 C 0.212197 0.326319 1.486314 0
M  V30 11 O -0.824362 -0.323205 1.951005 0
M  V30 12 H 0.896566 -2.763928 1.117195 0
M  V30 13 H 3.041995 -1.064820 0.161666 0
M  V30 14 H 1.954723 3.071006 0.734405 0
M  V30 15 H -0.157483 2.383703 1.692579 0
M  V30 END ATOM
M  V30 BEGIN BOND
M  V30 1 2 1 2
M  V30 2 1 2 3
M  V30 3 1 3 4
M  V30 4 2 4 5
M  V30 5 1 5 6
M  V30 6 1 6 7
M  V30 7 2 6 8
M  V30 8 1 8 9
M  V30 9 2 9 10
M  V30 10 1 10 11
M  V30 11 1 11 2
M  V30 12 1 10 4
M  V30 13 1 3 12
M  V30 14 1 5 13
M  V30 15 1 8 14
M  V30 16 1 9 15
M  V30 END BOND
M  V30 END CTAB
M  END
>  <Dataset>  (189) 
OralDrugs

>  <Ligand_Instance>  (189) 
nan

>  <PDB_ID>  (189) 
nan

>  <Standardized_SMILES>  (189) 
O=c1[nH]c2cc(Cl)ccc2o1

>  <Name>  (189) 
Chlorzoxazone

>  <Pocket>  (189) 
nan

>  <ATP_Site>  (189) 
nan

>  <Peripheral>  (189) 
nan

>  <Num_H_Atoms_ProtBoundConf>  (189) 
nan

>  <Num_Resolved_Atoms>  (189) 
nan

>  <Num_Not_Resolved_Atoms>  (189) 
nan

$$$$
CHEMBL1042
     RDKit          3D

  0  0  0  0  0  0  0  0  0  0999 V3000
M  V30 BEGIN CTAB
M  V30 COUNTS 72 74 0 0 0
M  V30 BEGIN ATOM
M  V30 1 C -2.437525 1.531587 -3.098796 0
M  V30 2 C -1.846789 2.386105 -3.933725 0
M  V30 3 C -2.016599 2.434721 -5.432396 0
M  V30 4 C -1.977931 3.875587 -5.904551 0
M  V30 5 C -0.724198 4.528247 -5.356153 0 CFG=2
M  V30 6 O 0.293386 3.558282 -5.478632 0
M  V30 7 C -0.925344 4.731744 -3.871172 0
M  V30 8 C -0.964708 3.351468 -3.287142 0
M  V30 9 C -0.264565 2.939997 -2.244105 0
M  V30 10 C -0.286380 1.621625 -1.681356 0
M  V30 11 C 0.494764 1.372145 -0.607487 0
M  V30 12 C 1.376042 2.440315 -0.003990 0
M  V30 13 C 2.467756 1.697827 0.740071 0
M  V30 14 C 1.919165 0.983905 1.961735 0
M  V30 15 C 0.626771 0.271674 1.645871 0 CFG=2
M  V30 16 C -0.554058 0.995389 2.160603 0
M  V30 17 C 0.662616 -1.215548 1.982265 0 CFG=1
M  V30 18 C 0.532994 -1.550625 3.383778 0 CFG=2
M  V30 19 C 1.630693 -0.986383 4.278067 0
M  V30 20 C 0.252244 -2.975483 3.664380 0
M  V30 21 C 1.162330 -4.059320 3.314766 0
M  V30 22 C 1.562313 -4.390680 1.946943 0
M  V30 23 C 2.503767 -5.630911 2.003733 0
M  V30 24 C 1.725181 -6.759220 2.626750 0
M  V30 25 C 3.714363 -5.337432 2.822877 0
M  V30 26 C -0.535773 -1.669504 1.190523 0
M  V30 27 C -0.562849 -0.812926 -0.060923 0
M  V30 28 C 0.613943 0.098152 0.136145 0 CFG=1
M  V30 29 H -3.015042 0.755044 -2.630990 0
M  V30 30 H -3.110387 0.801923 -3.572004 0
M  V30 31 H -1.128161 1.912233 -5.832648 0
M  V30 32 H -2.915294 1.922829 -5.777586 0
M  V30 33 H -2.831472 4.438805 -5.489322 0
M  V30 34 H -2.005581 3.874043 -7.005880 0
M  V30 35 H -0.464617 5.468175 -5.879604 0
M  V30 36 H 0.980038 3.782561 -4.794317 0
M  V30 37 H -0.020244 5.289708 -3.491310 0
M  V30 38 H -1.852192 5.264178 -3.653154 0
M  V30 39 H 0.356111 3.711790 -1.817223 0
M  V30 40 H -0.744865 0.656570 -1.827575 0
M  V30 41 H 0.807294 3.144847 0.608549 0
M  V30 42 H 1.911066 3.023767 -0.785105 0
M  V30 43 H 2.935107 1.012902 0.007064 0
M  V30 44 H 3.232863 2.446425 1.018292 0
M  V30 45 H 1.694444 1.789050 2.688531 0
M  V30 46 H 2.691289 0.275448 2.307390 0
M  V30 47 H -1.305542 0.389346 2.686795 0
M  V30 48 H -1.115086 1.565733 1.387192 0
M  V30 49 H -0.208016 1.741660 2.938190 0
M  V30 50 H 1.576188 -1.563187 1.461940 0
M  V30 51 H -0.398642 -1.000403 3.786435 0
M  V30 52 H 2.625787 -1.351507 4.054308 0
M  V30 53 H 1.393821 -1.381140 5.306405 0
M  V30 54 H 1.490020 0.096210 4.359765 0
M  V30 55 H -0.750014 -3.181228 3.123565 0
M  V30 56 H -0.120631 -3.095799 4.754529 0
M  V30 57 H 2.090504 -4.024375 3.971968 0
M  V30 58 H 0.668836 -5.018049 3.725347 0
M  V30 59 H 0.673660 -4.757377 1.345461 0
M  V30 60 H 2.090620 -3.680234 1.333234 0
M  V30 61 H 2.809212 -5.927652 0.989174 0
M  V30 62 H 1.821507 -6.789748 3.724953 0
M  V30 63 H 1.985919 -7.734182 2.172686 0
M  V30 64 H 0.642043 -6.588793 2.361844 0
M  V30 65 H 3.634925 -5.804492 3.838150 0
M  V30 66 H 4.598261 -5.827477 2.364809 0
M  V30 67 H 3.965581 -4.258933 2.869860 0
M  V30 68 H -0.548098 -2.749034 0.946176 0
M  V30 69 H -1.462540 -1.383294 1.765887 0
M  V30 70 H -0.348990 -1.503652 -0.909494 0
M  V30 71 H -1.515969 -0.311814 -0.220989 0
M  V30 72 H 1.532490 -0.466494 -0.126529 0
M  V30 END ATOM
M  V30 BEGIN BOND
M  V30 1 2 1 2
M  V30 2 1 2 3
M  V30 3 1 3 4
M  V30 4 1 4 5
M  V30 5 1 5 6
M  V30 6 1 5 7
M  V30 7 1 7 8
M  V30 8 2 8 9
M  V30 9 1 9 10
M  V30 10 2 10 11
M  V30 11 1 11 12
M  V30 12 1 12 13
M  V30 13 1 13 14
M  V30 14 1 14 15
M  V30 15 1 15 16 CFG=1
M  V30 16 1 15 17
M  V30 17 1 17 18
M  V30 18 1 18 19
M  V30 19 1 18 20
M  V30 20 1 20 21
M  V30 21 1 21 22
M  V30 22 1 22 23
M  V30 23 1 23 24
M  V30 24 1 23 25
M  V30 25 1 17 26
M  V30 26 1 26 27
M  V30 27 1 27 28
M  V30 28 1 8 2
M  V30 29 1 28 11
M  V30 30 1 28 15
M  V30 31 1 1 29
M  V30 32 1 1 30
M  V30 33 1 3 31
M  V30 34 1 3 32
M  V30 35 1 4 33
M  V30 36 1 4 34
M  V30 37 1 5 35 CFG=3
M  V30 38 1 6 36
M  V30 39 1 7 37
M  V30 40 1 7 38
M  V30 41 1 9 39
M  V30 42 1 10 40
M  V30 43 1 12 41
M  V30 44 1 12 42
M  V30 45 1 13 43
M  V30 46 1 13 44
M  V30 47 1 14 45
M  V30 48 1 14 46
M  V30 49 1 16 47
M  V30 50 1 16 48
M  V30 51 1 16 49
M  V30 52 1 17 50 CFG=3
M  V30 53 1 18 51 CFG=1
M  V30 54 1 19 52
M  V30 55 1 19 53
M  V30 56 1 19 54
M  V30 57 1 20 55
M  V30 58 1 20 56
M  V30 59 1 21 57
M  V30 60 1 21 58
M  V30 61 1 22 59
M  V30 62 1 22 60
M  V30 63 1 23 61
M  V30 64 1 24 62
M  V30 65 1 24 63
M  V30 66 1 24 64
M  V30 67 1 25 65
M  V30 68 1 25 66
M  V30 69 1 25 67
M  V30 70 1 26 68
M  V30 71 1 26 69
M  V30 72 1 27 70
M  V30 73 1 27 71
M  V30 74 1 28 72 CFG=3
M  V30 END BOND
M  V30 END CTAB
M  END
>  <Dataset>  (190) 
OralDrugs

>  <Ligand_Instance>  (190) 
nan

>  <PDB_ID>  (190) 
nan

>  <Standardized_SMILES>  (190) 
C=C1CC[C@H](O)C/C1=C/C=C1\CCC[C@]2(C)[C@@H]([C@H](C)CCCC(C)C)CC[C@@H]12

>  <Name>  (190) 
Cholecalciferol

>  <Pocket>  (190) 
nan

>  <ATP_Site>  (190) 
nan

>  <Peripheral>  (190) 
nan

>  <Num_H_Atoms_ProtBoundConf>  (190) 
nan

>  <Num_Resolved_Atoms>  (190) 
nan

>  <Num_Not_Resolved_Atoms>  (190) 
nan

$$$$
CHEMBL205596
     RDKit          3D

  0  0  0  0  0  0  0  0  0  0999 V3000
M  V30 BEGIN CTAB
M  V30 COUNTS 69 72 0 0 0
M  V30 BEGIN ATOM
M  V30 1 C 2.147841 -1.634393 3.583823 0
M  V30 2 C 2.972854 -0.811316 2.550362 0 CFG=2
M  V30 3 C 3.900493 0.006795 3.409989 0
M  V30 4 C 4.835386 0.917872 2.697743 0
M  V30 5 C 5.730246 1.618571 3.690552 0
M  V30 6 O 5.706184 1.467709 4.952883 0
M  V30 7 O 6.683946 2.520380 3.234960 0
M  V30 8 C 2.034400 -0.101558 1.674465 0 CFG=1
M  V30 9 C 2.658064 0.717686 0.575297 0
M  V30 10 C 1.923600 0.304820 -0.725925 0
M  V30 11 C 0.592893 0.015298 -0.151632 0 CFG=1
M  V30 12 C -0.413554 -0.544652 -1.070430 0 CFG=2
M  V30 13 C -0.804901 0.457612 -2.144565 0 CFG=2
M  V30 14 O -0.289147 1.720179 -1.771325 0
M  V30 15 C -2.269053 0.610016 -2.329525 0
M  V30 16 C -3.077066 -0.649753 -2.241063 0 CFG=2
M  V30 17 C -4.475302 -0.203261 -1.820414 0
M  V30 18 C -5.470575 -1.333035 -1.928587 0 CFG=2
M  V30 19 O -6.631915 -0.907863 -1.282331 0
M  V30 20 C -4.920299 -2.545589 -1.247410 0
M  V30 21 C -3.745594 -2.185693 -0.390771 0
M  V30 22 C -2.591374 -1.602564 -1.150658 0 CFG=1
M  V30 23 C -1.890800 -2.756866 -1.868372 0
M  V30 24 C -1.659717 -0.820664 -0.297505 0 CFG=1
M  V30 25 C -1.445080 -1.484904 1.010082 0
M  V30 26 C -0.347407 -0.876080 1.856199 0 CFG=2
M  V30 27 O -0.655623 0.474971 2.088301 0
M  V30 28 C 0.917688 -0.864916 1.035927 0 CFG=2
M  V30 29 C 1.281923 -2.252274 0.670634 0
M  V30 30 H 2.913433 -2.000989 4.348883 0
M  V30 31 H 1.716270 -2.527629 3.176160 0
M  V30 32 H 1.491267 -0.986875 4.179904 0
M  V30 33 H 3.625528 -1.563121 2.060198 0
M  V30 34 H 4.573401 -0.737938 3.940098 0
M  V30 35 H 3.369644 0.489745 4.260664 0
M  V30 36 H 4.342169 1.744668 2.140019 0
M  V30 37 H 5.435052 0.343617 1.974238 0
M  V30 38 H 7.623752 2.525137 3.638008 0
M  V30 39 H 1.499384 0.680570 2.316284 0
M  V30 40 H 2.530543 1.808019 0.688874 0
M  V30 41 H 3.700239 0.499361 0.345965 0
M  V30 42 H 2.008116 1.152964 -1.403965 0
M  V30 43 H 2.396175 -0.584813 -1.170293 0
M  V30 44 H 0.167005 0.953460 0.285845 0
M  V30 45 H -0.021392 -1.401873 -1.626028 0
M  V30 46 H -0.333280 0.249440 -3.126937 0
M  V30 47 H -0.907674 2.096193 -1.110233 0
M  V30 48 H -2.631865 1.407859 -1.644851 0
M  V30 49 H -2.442110 1.029735 -3.353702 0
M  V30 50 H -3.186386 -1.174679 -3.205591 0
M  V30 51 H -4.382101 0.208551 -0.806006 0
M  V30 52 H -4.793529 0.645073 -2.465954 0
M  V30 53 H -5.681223 -1.514784 -2.997056 0
M  V30 54 H -7.142980 -1.707273 -0.971808 0
M  V30 55 H -4.720868 -3.343308 -1.987896 0
M  V30 56 H -5.693201 -2.962887 -0.555156 0
M  V30 57 H -3.405893 -3.143097 0.086636 0
M  V30 58 H -4.142617 -1.496247 0.401715 0
M  V30 59 H -2.686622 -3.486297 -2.136314 0
M  V30 60 H -1.439038 -2.421776 -2.817551 0
M  V30 61 H -1.193670 -3.280193 -1.190022 0
M  V30 62 H -2.140568 0.174575 -0.094162 0
M  V30 63 H -1.383615 -2.579994 0.968384 0
M  V30 64 H -2.389653 -1.290040 1.611663 0
M  V30 65 H -0.308697 -1.433335 2.788893 0
M  V30 66 H -1.539794 0.531088 2.541795 0
M  V30 67 H 2.345478 -2.524329 0.872320 0
M  V30 68 H 1.162142 -2.480483 -0.419976 0
M  V30 69 H 0.577906 -2.960398 1.150574 0
M  V30 END ATOM
M  V30 BEGIN BOND
M  V30 1 1 1 2
M  V30 2 1 2 3
M  V30 3 1 3 4
M  V30 4 1 4 5
M  V30 5 2 5 6
M  V30 6 1 5 7
M  V30 7 1 2 8
M  V30 8 1 8 9
M  V30 9 1 9 10
M  V30 10 1 10 11
M  V30 11 1 11 12
M  V30 12 1 12 13
M  V30 13 1 13 14
M  V30 14 1 13 15
M  V30 15 1 15 16
M  V30 16 1 16 17
M  V30 17 1 17 18
M  V30 18 1 18 19
M  V30 19 1 18 20
M  V30 20 1 20 21
M  V30 21 1 21 22
M  V30 22 1 22 23 CFG=3
M  V30 23 1 22 24
M  V30 24 1 24 25
M  V30 25 1 25 26
M  V30 26 1 26 27
M  V30 27 1 26 28
M  V30 28 1 28 29 CFG=3
M  V30 29 1 28 8
M  V30 30 1 28 11
M  V30 31 1 24 12
M  V30 32 1 22 16
M  V30 33 1 1 30
M  V30 34 1 1 31
M  V30 35 1 1 32
M  V30 36 1 2 33 CFG=3
M  V30 37 1 3 34
M  V30 38 1 3 35
M  V30 39 1 4 36
M  V30 40 1 4 37
M  V30 41 1 7 38
M  V30 42 1 8 39 CFG=1
M  V30 43 1 9 40
M  V30 44 1 9 41
M  V30 45 1 10 42
M  V30 46 1 10 43
M  V30 47 1 11 44 CFG=1
M  V30 48 1 12 45 CFG=3
M  V30 49 1 13 46 CFG=3
M  V30 50 1 14 47
M  V30 51 1 15 48
M  V30 52 1 15 49
M  V30 53 1 16 50 CFG=3
M  V30 54 1 17 51
M  V30 55 1 17 52
M  V30 56 1 18 53 CFG=3
M  V30 57 1 19 54
M  V30 58 1 20 55
M  V30 59 1 20 56
M  V30 60 1 21 57
M  V30 61 1 21 58
M  V30 62 1 23 59
M  V30 63 1 23 60
M  V30 64 1 23 61
M  V30 65 1 24 62 CFG=1
M  V30 66 1 25 63
M  V30 67 1 25 64
M  V30 68 1 26 65 CFG=1
M  V30 69 1 27 66
M  V30 70 1 29 67
M  V30 71 1 29 68
M  V30 72 1 29 69
M  V30 END BOND
M  V30 END CTAB
M  END
>  <Dataset>  (191) 
OralDrugs

>  <Ligand_Instance>  (191) 
nan

>  <PDB_ID>  (191) 
nan

>  <Standardized_SMILES>  (191) 
C[C@H](CCC(=O)O)[C@H]1CC[C@H]2[C@@H]3[C@H](O)C[C@@H]4C[C@H](O)CC[C@]4(C)[C@H]3C[C@H](O)[C@]12C

>  <Name>  (191) 
Cholic Acid

>  <Pocket>  (191) 
nan

>  <ATP_Site>  (191) 
nan

>  <Peripheral>  (191) 
nan

>  <Num_H_Atoms_ProtBoundConf>  (191) 
nan

>  <Num_Resolved_Atoms>  (191) 
nan

>  <Num_Not_Resolved_Atoms>  (191) 
nan

$$$$
CHEMBL1201745
     RDKit          3D

  0  0  0  0  0  0  0  0  0  0999 V3000
M  V30 BEGIN CTAB
M  V30 COUNTS 37 38 0 0 0
M  V30 BEGIN ATOM
M  V30 1 C -0.782013 -4.453509 0.427719 0
M  V30 2 C 0.017763 -4.062875 1.672379 0
M  V30 3 C 0.346389 -5.319651 2.452801 0
M  V30 4 O 1.176096 -3.377838 1.333735 0
M  V30 5 C 1.258998 -2.189790 0.671470 0
M  V30 6 C 1.312876 -1.033749 1.420021 0
M  V30 7 C 1.391994 0.209526 0.833048 0
M  V30 8 C 1.417593 0.303471 -0.545356 0
M  V30 9 C 1.431020 1.520659 -1.369663 0
M  V30 10 O 1.939702 1.559555 -2.510481 0
M  V30 11 C 0.812209 2.735778 -0.814843 0
M  V30 12 C -0.167390 2.647578 0.145529 0
M  V30 13 C -0.817411 3.678759 0.761626 0
M  V30 14 C -0.454447 4.965304 0.378369 0
M  V30 15 Cl -1.213106 6.373016 1.096698 0
M  V30 16 C 0.516059 5.098188 -0.577300 0
M  V30 17 C 1.176969 4.032610 -1.202798 0
M  V30 18 C 1.365825 -0.864744 -1.309887 0
M  V30 19 C 1.287033 -2.105920 -0.704917 0
M  V30 20 C -0.923651 -3.200508 2.455905 0
M  V30 21 O -1.098929 -2.028568 2.948340 0
M  V30 22 O -2.021855 -3.993764 2.752224 0
M  V30 23 H -0.309298 -5.337684 -0.027917 0
M  V30 24 H -0.843187 -3.594156 -0.264439 0
M  V30 25 H -1.816375 -4.664487 0.751860 0
M  V30 26 H 0.123096 -5.125989 3.533320 0
M  V30 27 H -0.216684 -6.193824 2.075611 0
M  V30 28 H 1.430185 -5.591510 2.354062 0
M  V30 29 H 1.315627 -0.947266 2.500098 0
M  V30 30 H 1.460639 1.156360 1.385605 0
M  V30 31 H -0.561413 1.688230 0.512300 0
M  V30 32 H -1.582193 3.599111 1.517530 0
M  V30 33 H 0.859738 6.082200 -0.937765 0
M  V30 34 H 1.930469 4.131870 -1.951267 0
M  V30 35 H 1.379446 -0.938086 -2.398624 0
M  V30 36 H 1.248376 -3.030612 -1.248425 0
M  V30 37 H -2.792502 -3.684109 3.326400 0
M  V30 END ATOM
M  V30 BEGIN BOND
M  V30 1 1 1 2
M  V30 2 1 2 3
M  V30 3 1 2 4
M  V30 4 1 4 5
M  V30 5 2 5 6
M  V30 6 1 6 7
M  V30 7 2 7 8
M  V30 8 1 8 9
M  V30 9 2 9 10
M  V30 10 1 9 11
M  V30 11 2 11 12
M  V30 12 1 12 13
M  V30 13 2 13 14
M  V30 14 1 14 15
M  V30 15 1 14 16
M  V30 16 2 16 17
M  V30 17 1 8 18
M  V30 18 2 18 19
M  V30 19 1 2 20
M  V30 20 2 20 21
M  V30 21 1 20 22
M  V30 22 1 19 5
M  V30 23 1 17 11
M  V30 24 1 1 23
M  V30 25 1 1 24
M  V30 26 1 1 25
M  V30 27 1 3 26
M  V30 28 1 3 27
M  V30 29 1 3 28
M  V30 30 1 6 29
M  V30 31 1 7 30
M  V30 32 1 12 31
M  V30 33 1 13 32
M  V30 34 1 16 33
M  V30 35 1 17 34
M  V30 36 1 18 35
M  V30 37 1 19 36
M  V30 38 1 22 37
M  V30 END BOND
M  V30 END CTAB
M  END
>  <Dataset>  (192) 
OralDrugs

>  <Ligand_Instance>  (192) 
nan

>  <PDB_ID>  (192) 
nan

>  <Standardized_SMILES>  (192) 
CC(C)(Oc1ccc(C(=O)c2ccc(Cl)cc2)cc1)C(=O)O

>  <Name>  (192) 
Choline Fenofibrate

>  <Pocket>  (192) 
nan

>  <ATP_Site>  (192) 
nan

>  <Peripheral>  (192) 
nan

>  <Num_H_Atoms_ProtBoundConf>  (192) 
nan

>  <Num_Resolved_Atoms>  (192) 
nan

>  <Num_Not_Resolved_Atoms>  (192) 
nan

$$$$
CHEMBL799
     RDKit          3D

  0  0  0  0  0  0  0  0  0  0999 V3000
M  V30 BEGIN CTAB
M  V30 COUNTS 54 57 0 0 0
M  V30 BEGIN ATOM
M  V30 1 O 3.064239 -8.182493 2.133873 0
M  V30 2 C 2.403698 -7.295180 1.549634 0
M  V30 3 C 1.368629 -6.413075 2.156148 0
M  V30 4 C 1.701780 -4.968315 1.839028 0
M  V30 5 C 1.955519 -4.772285 0.405735 0
M  V30 6 C 1.718562 -3.519793 -0.094263 0
M  V30 7 C 1.915493 -3.200357 -1.418046 0
M  V30 8 O 1.777086 -2.082600 -2.193520 0
M  V30 9 C 1.364092 -0.800650 -1.835361 0
M  V30 10 C 2.267222 -0.154282 -0.843614 0
M  V30 11 C 1.812869 1.236968 -0.452217 0
M  V30 12 C 0.443095 1.264518 0.170420 0
M  V30 13 C 0.133161 2.687523 0.500896 0
M  V30 14 N 0.917546 3.760605 0.290077 0
M  V30 15 N 0.281508 4.839259 0.721822 0
M  V30 16 N -0.866248 4.425723 1.185093 0
M  V30 17 N -1.005892 3.114876 1.072768 0
M  V30 18 C -2.104344 2.233713 1.451176 0
M  V30 19 C -2.775363 2.875168 2.647391 0
M  V30 20 C -3.755357 3.896114 2.104394 0
M  V30 21 C -4.996032 3.098117 1.733682 0
M  V30 22 C -4.536926 1.938122 0.903365 0
M  V30 23 C -3.136330 2.078647 0.371689 0
M  V30 24 C 2.377888 -4.243515 -2.237158 0
M  V30 25 C 2.624514 -5.520384 -1.752100 0
M  V30 26 C 2.409584 -5.786311 -0.410638 0
M  V30 27 N 2.643898 -7.081947 0.157492 0
M  V30 28 H 1.357464 -6.545199 3.256314 0
M  V30 29 H 0.372340 -6.614238 1.701902 0
M  V30 30 H 2.638390 -4.656788 2.385892 0
M  V30 31 H 0.844672 -4.341636 2.152487 0
M  V30 32 H 1.361041 -2.688751 0.459498 0
M  V30 33 H 1.339607 -0.206672 -2.796123 0
M  V30 34 H 0.298493 -0.818623 -1.513698 0
M  V30 35 H 3.254267 0.020695 -1.376253 0
M  V30 36 H 2.528392 -0.718558 0.043223 0
M  V30 37 H 1.871291 1.882568 -1.348598 0
M  V30 38 H 2.558853 1.605515 0.270115 0
M  V30 39 H 0.495176 0.720694 1.142391 0
M  V30 40 H -0.327719 0.794815 -0.435146 0
M  V30 41 H -1.687467 1.261129 1.787290 0
M  V30 42 H -3.334041 2.126175 3.224361 0
M  V30 43 H -2.045517 3.377729 3.316071 0
M  V30 44 H -4.011580 4.647014 2.887303 0
M  V30 45 H -3.312844 4.429659 1.241239 0
M  V30 46 H -5.413325 2.718284 2.691959 0
M  V30 47 H -5.768893 3.727123 1.266493 0
M  V30 48 H -4.556802 1.000205 1.495275 0
M  V30 49 H -5.197838 1.789734 0.027021 0
M  V30 50 H -2.917311 1.097649 -0.134401 0
M  V30 51 H -3.025448 2.861517 -0.395880 0
M  V30 52 H 2.603725 -4.224502 -3.313531 0
M  V30 53 H 2.974047 -6.361288 -2.304282 0
M  V30 54 H 2.988098 -7.835872 -0.479989 0
M  V30 END ATOM
M  V30 BEGIN BOND
M  V30 1 2 1 2
M  V30 2 1 2 3
M  V30 3 1 3 4
M  V30 4 1 4 5
M  V30 5 2 5 6
M  V30 6 1 6 7
M  V30 7 1 7 8
M  V30 8 1 8 9
M  V30 9 1 9 10
M  V30 10 1 10 11
M  V30 11 1 11 12
M  V30 12 1 12 13
M  V30 13 2 13 14
M  V30 14 1 14 15
M  V30 15 2 15 16
M  V30 16 1 16 17
M  V30 17 1 17 18
M  V30 18 1 18 19
M  V30 19 1 19 20
M  V30 20 1 20 21
M  V30 21 1 21 22
M  V30 22 1 22 23
M  V30 23 2 7 24
M  V30 24 1 24 25
M  V30 25 2 25 26
M  V30 26 1 26 27
M  V30 27 1 27 2
M  V30 28 1 26 5
M  V30 29 1 17 13
M  V30 30 1 23 18
M  V30 31 1 3 28
M  V30 32 1 3 29
M  V30 33 1 4 30
M  V30 34 1 4 31
M  V30 35 1 6 32
M  V30 36 1 9 33
M  V30 37 1 9 34
M  V30 38 1 10 35
M  V30 39 1 10 36
M  V30 40 1 11 37
M  V30 41 1 11 38
M  V30 42 1 12 39
M  V30 43 1 12 40
M  V30 44 1 18 41
M  V30 45 1 19 42
M  V30 46 1 19 43
M  V30 47 1 20 44
M  V30 48 1 20 45
M  V30 49 1 21 46
M  V30 50 1 21 47
M  V30 51 1 22 48
M  V30 52 1 22 49
M  V30 53 1 23 50
M  V30 54 1 23 51
M  V30 55 1 24 52
M  V30 56 1 25 53
M  V30 57 1 27 54
M  V30 END BOND
M  V30 END CTAB
M  END
>  <Dataset>  (193) 
OralDrugs

>  <Ligand_Instance>  (193) 
nan

>  <PDB_ID>  (193) 
nan

>  <Standardized_SMILES>  (193) 
O=C1CCc2cc(OCCCCc3nnnn3C3CCCCC3)ccc2N1

>  <Name>  (193) 
Cilostazol

>  <Pocket>  (193) 
nan

>  <ATP_Site>  (193) 
nan

>  <Peripheral>  (193) 
nan

>  <Num_H_Atoms_ProtBoundConf>  (193) 
nan

>  <Num_Resolved_Atoms>  (193) 
nan

>  <Num_Not_Resolved_Atoms>  (193) 
nan

$$$$
CHEMBL30
     RDKit          3D

  0  0  0  0  0  0  0  0  0  0999 V3000
M  V30 BEGIN CTAB
M  V30 COUNTS 33 33 0 0 0
M  V30 BEGIN ATOM
M  V30 1 C -2.192124 -3.258598 1.462154 0
M  V30 2 N -2.556226 -2.084894 2.189521 0
M  V30 3 C -1.636969 -1.003396 2.182413 0
M  V30 4 N -0.384683 -1.159442 2.125006 0
M  V30 5 C 0.224064 -2.443282 2.062873 0
M  V30 6 C 1.304762 -2.641413 1.050779 0
M  V30 7 S 0.994197 -2.493286 -0.639681 0
M  V30 8 C 0.489196 -1.020267 -1.430217 0
M  V30 9 C 1.498798 0.052569 -1.339337 0
M  V30 10 N 2.817555 0.020961 -1.391311 0
M  V30 11 C 3.305228 1.253133 -1.214127 0
M  V30 12 N 2.282712 2.145060 -1.038333 0
M  V30 13 C 1.159096 1.380086 -1.119432 0
M  V30 14 C -0.181558 2.023775 -1.013857 0
M  V30 15 N -2.039450 0.366186 2.254010 0
M  V30 16 C -1.076237 1.408942 2.306737 0
M  V30 17 N -0.271492 2.275037 2.353302 0
M  V30 18 H -1.509461 -3.160331 0.624063 0
M  V30 19 H -2.265413 -4.213646 1.985765 0
M  V30 20 H -3.139597 -3.375847 0.817754 0
M  V30 21 H -3.438316 -1.942239 2.727238 0
M  V30 22 H -0.178288 -3.305666 2.572104 0
M  V30 23 H 0.932260 -2.200670 2.973371 0
M  V30 24 H 2.227241 -1.993693 1.260276 0
M  V30 25 H 1.737636 -3.644411 1.257408 0
M  V30 26 H -0.539265 -0.656139 -1.171944 0
M  V30 27 H 0.387437 -1.225034 -2.542950 0
M  V30 28 H 4.338208 1.605511 -1.190347 0
M  V30 29 H 2.348710 3.169873 -0.877061 0
M  V30 30 H -0.154228 2.929003 -0.373950 0
M  V30 31 H -0.517067 2.339755 -2.022527 0
M  V30 32 H -0.951004 1.304453 -0.674498 0
M  V30 33 H -3.074740 0.565842 2.269907 0
M  V30 END ATOM
M  V30 BEGIN BOND
M  V30 1 1 1 2
M  V30 2 1 2 3
M  V30 3 2 3 4
M  V30 4 1 4 5
M  V30 5 1 5 6
M  V30 6 1 6 7
M  V30 7 1 7 8
M  V30 8 1 8 9
M  V30 9 1 9 10
M  V30 10 2 10 11
M  V30 11 1 11 12
M  V30 12 1 12 13
M  V30 13 1 13 14
M  V30 14 1 3 15
M  V30 15 1 15 16
M  V30 16 3 16 17
M  V30 17 2 13 9
M  V30 18 1 1 18
M  V30 19 1 1 19
M  V30 20 1 1 20
M  V30 21 1 2 21
M  V30 22 1 5 22
M  V30 23 1 5 23
M  V30 24 1 6 24
M  V30 25 1 6 25
M  V30 26 1 8 26
M  V30 27 1 8 27
M  V30 28 1 11 28
M  V30 29 1 12 29
M  V30 30 1 14 30
M  V30 31 1 14 31
M  V30 32 1 14 32
M  V30 33 1 15 33
M  V30 END BOND
M  V30 END CTAB
M  END
>  <Dataset>  (194) 
OralDrugs

>  <Ligand_Instance>  (194) 
nan

>  <PDB_ID>  (194) 
nan

>  <Standardized_SMILES>  (194) 
CN/C(=N\CCSCc1nc[nH]c1C)NC#N

>  <Name>  (194) 
Cimetidine

>  <Pocket>  (194) 
nan

>  <ATP_Site>  (194) 
nan

>  <Peripheral>  (194) 
nan

>  <Num_H_Atoms_ProtBoundConf>  (194) 
nan

>  <Num_Resolved_Atoms>  (194) 
nan

>  <Num_Not_Resolved_Atoms>  (194) 
nan

$$$$
CHEMBL1201284
     RDKit          3D

  0  0  0  0  0  0  0  0  0  0999 V3000
M  V30 BEGIN CTAB
M  V30 COUNTS 48 50 0 0 0
M  V30 BEGIN ATOM
M  V30 1 C -0.917472 -3.973805 1.785705 0
M  V30 2 C -0.609074 -2.536434 1.343738 0 CFG=1
M  V30 3 N 0.832797 -2.403618 1.440735 0
M  V30 4 C 1.332117 -1.108771 1.087508 0
M  V30 5 C 2.842670 -1.171591 1.246931 0
M  V30 6 C 3.486470 0.152342 0.898339 0
M  V30 7 C 2.995788 1.250516 1.767755 0
M  V30 8 C 3.526817 1.657084 2.963041 0
M  V30 9 C 2.963129 2.703107 3.672716 0
M  V30 10 C 1.836897 3.376821 3.194349 0
M  V30 11 C 1.282734 2.989214 1.996085 0
M  V30 12 C 0.087809 3.676545 1.451306 0
M  V30 13 F 0.494512 4.762947 0.709115 0
M  V30 14 F -0.754362 4.050367 2.487660 0
M  V30 15 F -0.547903 2.794014 0.586576 0
M  V30 16 C 1.876617 1.938939 1.317740 0
M  V30 17 C -1.078175 -2.367053 -0.054806 0
M  V30 18 C -0.162979 -2.666996 -1.053307 0
M  V30 19 C -0.474274 -2.549711 -2.400664 0
M  V30 20 C -1.743285 -2.117925 -2.781397 0
M  V30 21 C -2.657356 -1.818442 -1.791955 0
M  V30 22 C -3.942673 -1.382797 -2.125245 0
M  V30 23 C -4.834747 -1.092381 -1.090660 0
M  V30 24 C -4.508815 -1.214810 0.259541 0
M  V30 25 C -3.228912 -1.648080 0.537841 0
M  V30 26 C -2.323588 -1.943177 -0.459279 0
M  V30 27 H -1.942898 -4.262599 1.508569 0
M  V30 28 H -0.215064 -4.627884 1.233130 0
M  V30 29 H -0.698445 -4.053744 2.873246 0
M  V30 30 H -1.028726 -1.816623 2.049567 0
M  V30 31 H 1.343027 -3.191732 1.035650 0
M  V30 32 H 0.910372 -0.342903 1.770867 0
M  V30 33 H 1.107313 -0.841566 0.035782 0
M  V30 34 H 3.067442 -1.358368 2.319880 0
M  V30 35 H 3.256807 -1.939932 0.589306 0
M  V30 36 H 4.578368 0.052764 1.062914 0
M  V30 37 H 3.317319 0.404684 -0.147547 0
M  V30 38 H 4.400626 1.111033 3.303002 0
M  V30 39 H 3.405233 2.999706 4.611794 0
M  V30 40 H 1.386177 4.194279 3.736402 0
M  V30 41 H 1.405473 1.671831 0.382640 0
M  V30 42 H 0.852940 -3.012567 -0.935914 0
M  V30 43 H 0.172489 -2.760585 -3.223764 0
M  V30 44 H -2.026158 -2.012889 -3.831769 0
M  V30 45 H -4.255976 -1.267644 -3.153912 0
M  V30 46 H -5.835714 -0.753428 -1.312867 0
M  V30 47 H -5.243862 -0.974589 1.012658 0
M  V30 48 H -2.987460 -1.740763 1.585726 0
M  V30 END ATOM
M  V30 BEGIN BOND
M  V30 1 1 1 2
M  V30 2 1 2 3
M  V30 3 1 3 4
M  V30 4 1 4 5
M  V30 5 1 5 6
M  V30 6 1 6 7
M  V30 7 2 7 8
M  V30 8 1 8 9
M  V30 9 2 9 10
M  V30 10 1 10 11
M  V30 11 1 11 12
M  V30 12 1 12 13
M  V30 13 1 12 14
M  V30 14 1 12 15
M  V30 15 2 11 16
M  V30 16 1 2 17
M  V30 17 2 17 18
M  V30 18 1 18 19
M  V30 19 2 19 20
M  V30 20 1 20 21
M  V30 21 2 21 22
M  V30 22 1 22 23
M  V30 23 2 23 24
M  V30 24 1 24 25
M  V30 25 2 25 26
M  V30 26 1 16 7
M  V30 27 1 26 17
M  V30 28 1 26 21
M  V30 29 1 1 27
M  V30 30 1 1 28
M  V30 31 1 1 29
M  V30 32 1 2 30 CFG=1
M  V30 33 1 3 31
M  V30 34 1 4 32
M  V30 35 1 4 33
M  V30 36 1 5 34
M  V30 37 1 5 35
M  V30 38 1 6 36
M  V30 39 1 6 37
M  V30 40 1 8 38
M  V30 41 1 9 39
M  V30 42 1 10 40
M  V30 43 1 16 41
M  V30 44 1 18 42
M  V30 45 1 19 43
M  V30 46 1 20 44
M  V30 47 1 22 45
M  V30 48 1 23 46
M  V30 49 1 24 47
M  V30 50 1 25 48
M  V30 END BOND
M  V30 END CTAB
M  END
>  <Dataset>  (195) 
OralDrugs

>  <Ligand_Instance>  (195) 
nan

>  <PDB_ID>  (195) 
nan

>  <Standardized_SMILES>  (195) 
C[C@@H](NCCCc1cccc(C(F)(F)F)c1)c1cccc2ccccc12

>  <Name>  (195) 
Cinacalcet

>  <Pocket>  (195) 
nan

>  <ATP_Site>  (195) 
nan

>  <Peripheral>  (195) 
nan

>  <Num_H_Atoms_ProtBoundConf>  (195) 
nan

>  <Num_Resolved_Atoms>  (195) 
nan

>  <Num_Not_Resolved_Atoms>  (195) 
nan

$$$$
CHEMBL43064
     RDKit          3D

  0  0  0  0  0  0  0  0  0  0999 V3000
M  V30 BEGIN CTAB
M  V30 COUNTS 56 59 0 0 0
M  V30 BEGIN ATOM
M  V30 1 C 2.578213 -1.290356 1.418454 0
M  V30 2 C 2.343528 -2.313973 2.214869 0
M  V30 3 C 1.978238 -2.281371 3.624545 0
M  V30 4 C 1.766135 -3.454767 4.313764 0
M  V30 5 C 1.421033 -3.501993 5.635780 0
M  V30 6 C 1.284329 -2.278489 6.293593 0
M  V30 7 C 1.494102 -1.107551 5.613199 0
M  V30 8 C 1.841644 -1.074498 4.279904 0
M  V30 9 C 2.947944 -1.480373 -0.024775 0
M  V30 10 N 1.971911 -0.846426 -0.838561 0
M  V30 11 C 1.979063 0.573311 -0.748776 0
M  V30 12 C 0.683087 1.127020 -1.299810 0
M  V30 13 N -0.039313 0.262711 -2.136071 0
M  V30 14 C -1.367575 -0.090203 -1.837319 0
M  V30 15 C -2.294442 1.064296 -1.657698 0
M  V30 16 C -2.278499 2.129958 -2.536786 0
M  V30 17 C -3.153229 3.178597 -2.334102 0
M  V30 18 C -4.039125 3.186025 -1.277942 0
M  V30 19 C -4.082971 2.136362 -0.378450 0
M  V30 20 C -3.191258 1.092884 -0.605434 0
M  V30 21 C -1.586768 -1.070592 -0.757070 0
M  V30 22 C -2.497135 -2.121803 -0.953254 0
M  V30 23 C -2.840162 -3.125134 -0.080457 0
M  V30 24 C -2.211341 -3.095407 1.140210 0
M  V30 25 C -1.304123 -2.106660 1.427202 0
M  V30 26 C -1.018291 -1.137875 0.493106 0
M  V30 27 C 0.686432 -0.692499 -2.873939 0
M  V30 28 C 1.799148 -1.390299 -2.142054 0
M  V30 29 H 2.488228 -0.314196 1.871653 0
M  V30 30 H 2.444452 -3.283987 1.723698 0
M  V30 31 H 1.876130 -4.403826 3.789997 0
M  V30 32 H 1.269737 -4.454608 6.114368 0
M  V30 33 H 1.008071 -2.359095 7.347111 0
M  V30 34 H 1.382110 -0.176603 6.148012 0
M  V30 35 H 1.988770 -0.113044 3.816635 0
M  V30 36 H 3.053796 -2.565252 -0.209541 0
M  V30 37 H 3.940749 -0.989298 -0.157207 0
M  V30 38 H 2.124351 0.885976 0.287064 0
M  V30 39 H 2.880963 0.953037 -1.300925 0
M  V30 40 H 0.137426 1.598621 -0.484509 0
M  V30 41 H 1.020925 1.999893 -1.947744 0
M  V30 42 H -1.769322 -0.572497 -2.797921 0
M  V30 43 H -1.585100 2.144594 -3.379412 0
M  V30 44 H -3.186556 4.047432 -2.994893 0
M  V30 45 H -4.730644 4.002741 -1.107849 0
M  V30 46 H -4.761238 2.078863 0.481344 0
M  V30 47 H -3.156514 0.215523 0.059989 0
M  V30 48 H -3.011702 -2.161010 -1.928081 0
M  V30 49 H -3.547055 -3.871301 -0.342139 0
M  V30 50 H -2.432271 -3.851155 1.871811 0
M  V30 51 H -0.778344 -2.046482 2.392259 0
M  V30 52 H -0.302665 -0.369343 0.739180 0
M  V30 53 H -0.009289 -1.447775 -3.300647 0
M  V30 54 H 1.122808 -0.186626 -3.786046 0
M  V30 55 H 2.730932 -1.375084 -2.736424 0
M  V30 56 H 1.554177 -2.482259 -2.019064 0
M  V30 END ATOM
M  V30 BEGIN BOND
M  V30 1 2 1 2
M  V30 2 1 2 3
M  V30 3 2 3 4
M  V30 4 1 4 5
M  V30 5 2 5 6
M  V30 6 1 6 7
M  V30 7 2 7 8
M  V30 8 1 1 9
M  V30 9 1 9 10
M  V30 10 1 10 11
M  V30 11 1 11 12
M  V30 12 1 12 13
M  V30 13 1 13 14
M  V30 14 1 14 15
M  V30 15 2 15 16
M  V30 16 1 16 17
M  V30 17 2 17 18
M  V30 18 1 18 19
M  V30 19 2 19 20
M  V30 20 1 14 21
M  V30 21 2 21 22
M  V30 22 1 22 23
M  V30 23 2 23 24
M  V30 24 1 24 25
M  V30 25 2 25 26
M  V30 26 1 13 27
M  V30 27 1 27 28
M  V30 28 1 8 3
M  V30 29 1 28 10
M  V30 30 1 20 15
M  V30 31 1 26 21
M  V30 32 1 1 29
M  V30 33 1 2 30
M  V30 34 1 4 31
M  V30 35 1 5 32
M  V30 36 1 6 33
M  V30 37 1 7 34
M  V30 38 1 8 35
M  V30 39 1 9 36
M  V30 40 1 9 37
M  V30 41 1 11 38
M  V30 42 1 11 39
M  V30 43 1 12 40
M  V30 44 1 12 41
M  V30 45 1 14 42
M  V30 46 1 16 43
M  V30 47 1 17 44
M  V30 48 1 18 45
M  V30 49 1 19 46
M  V30 50 1 20 47
M  V30 51 1 22 48
M  V30 52 1 23 49
M  V30 53 1 24 50
M  V30 54 1 25 51
M  V30 55 1 26 52
M  V30 56 1 27 53
M  V30 57 1 27 54
M  V30 58 1 28 55
M  V30 59 1 28 56
M  V30 END BOND
M  V30 END CTAB
M  END
>  <Dataset>  (196) 
OralDrugs

>  <Ligand_Instance>  (196) 
nan

>  <PDB_ID>  (196) 
nan

>  <Standardized_SMILES>  (196) 
C(=C/c1ccccc1)\CN1CCN(C(c2ccccc2)c2ccccc2)CC1

>  <Name>  (196) 
Cinnarizine

>  <Pocket>  (196) 
nan

>  <ATP_Site>  (196) 
nan

>  <Peripheral>  (196) 
nan

>  <Num_H_Atoms_ProtBoundConf>  (196) 
nan

>  <Num_Resolved_Atoms>  (196) 
nan

>  <Num_Not_Resolved_Atoms>  (196) 
nan

$$$$
CHEMBL1208
     RDKit          3D

  0  0  0  0  0  0  0  0  0  0999 V3000
M  V30 BEGIN CTAB
M  V30 COUNTS 29 31 0 0 0
M  V30 BEGIN ATOM
M  V30 1 C 0.104756 -3.156356 2.941404 0
M  V30 2 C 0.712808 -1.773745 3.048659 0
M  V30 3 N 1.086173 -1.210405 1.779233 0
M  V30 4 N 2.284933 -1.377911 1.244546 0
M  V30 5 C 2.679268 -0.872638 0.067332 0
M  V30 6 C 4.031589 -1.128428 -0.416409 0
M  V30 7 O 4.453665 -0.679106 -1.513033 0
M  V30 8 O 4.915830 -1.900049 0.347339 0
M  V30 9 C 1.830910 -0.111417 -0.702676 0
M  V30 10 O 2.138358 0.390675 -1.813704 0
M  V30 11 C 0.566348 0.096827 -0.195093 0
M  V30 12 C -0.331631 0.849987 -0.917292 0
M  V30 13 C -1.605410 1.079388 -0.442365 0
M  V30 14 C -1.954545 0.533330 0.776056 0
M  V30 15 C -1.026015 -0.214220 1.467031 0
M  V30 16 C 0.257091 -0.466711 1.027016 0
M  V30 17 O -3.257764 0.914063 1.000917 0
M  V30 18 C -3.873241 1.323105 -0.229475 0
M  V30 19 O -2.705742 1.777989 -0.926430 0
M  V30 20 H -0.630088 -3.267237 3.746934 0
M  V30 21 H -0.322671 -3.335621 1.922013 0
M  V30 22 H 0.846094 -3.974364 3.080228 0
M  V30 23 H 0.151015 -1.071715 3.662869 0
M  V30 24 H 1.694318 -1.942999 3.585041 0
M  V30 25 H 5.924301 -1.685304 0.364561 0
M  V30 26 H -0.007741 1.261357 -1.877487 0
M  V30 27 H -1.366098 -0.602941 2.396565 0
M  V30 28 H -4.258815 0.381279 -0.672584 0
M  V30 29 H -4.614801 2.110770 -0.102501 0
M  V30 END ATOM
M  V30 BEGIN BOND
M  V30 1 1 1 2
M  V30 2 1 2 3
M  V30 3 1 3 4
M  V30 4 2 4 5
M  V30 5 1 5 6
M  V30 6 2 6 7
M  V30 7 1 6 8
M  V30 8 1 5 9
M  V30 9 2 9 10
M  V30 10 1 9 11
M  V30 11 2 11 12
M  V30 12 1 12 13
M  V30 13 2 13 14
M  V30 14 1 14 15
M  V30 15 2 15 16
M  V30 16 1 14 17
M  V30 17 1 17 18
M  V30 18 1 18 19
M  V30 19 1 16 3
M  V30 20 1 16 11
M  V30 21 1 19 13
M  V30 22 1 1 20
M  V30 23 1 1 21
M  V30 24 1 1 22
M  V30 25 1 2 23
M  V30 26 1 2 24
M  V30 27 1 8 25
M  V30 28 1 12 26
M  V30 29 1 15 27
M  V30 30 1 18 28
M  V30 31 1 18 29
M  V30 END BOND
M  V30 END CTAB
M  END
>  <Dataset>  (197) 
OralDrugs

>  <Ligand_Instance>  (197) 
nan

>  <PDB_ID>  (197) 
nan

>  <Standardized_SMILES>  (197) 
CCn1nc(C(=O)O)c(=O)c2cc3c(cc21)OCO3

>  <Name>  (197) 
Cinoxacin

>  <Pocket>  (197) 
nan

>  <ATP_Site>  (197) 
nan

>  <Peripheral>  (197) 
nan

>  <Num_H_Atoms_ProtBoundConf>  (197) 
nan

>  <Num_Resolved_Atoms>  (197) 
nan

>  <Num_Not_Resolved_Atoms>  (197) 
nan

$$$$
CHEMBL557555
     RDKit          3D

  0  0  0  0  0  0  0  0  0  0999 V3000
M  V30 BEGIN CTAB
M  V30 COUNTS 32 33 0 0 0
M  V30 BEGIN ATOM
M  V30 1 C -2.279027 -1.976704 1.649277 0
M  V30 2 C -1.055545 -2.439981 2.417645 0
M  V30 3 C -1.534058 -2.764565 3.839595 0
M  V30 4 O -0.097503 -1.437667 2.558321 0
M  V30 5 C 0.557688 -0.767563 1.546353 0
M  V30 6 C 1.737959 -1.044447 0.896695 0
M  V30 7 C 2.216811 -0.238611 -0.093244 0
M  V30 8 C 1.564506 0.914404 -0.525195 0
M  V30 9 C 2.150280 1.724101 -1.598230 0
M  V30 10 C 1.103035 2.203267 -2.613821 0
M  V30 11 C 1.919827 3.163113 -1.793319 0
M  V30 12 Cl 1.161041 4.203541 -0.601647 0
M  V30 13 Cl 3.152290 4.017661 -2.787895 0
M  V30 14 C 0.384935 1.188209 0.126427 0
M  V30 15 C -0.132834 0.382749 1.144693 0
M  V30 16 C -0.590354 -3.701283 1.838882 0
M  V30 17 O 0.529210 -4.101895 1.422683 0
M  V30 18 O -1.588992 -4.647645 1.726880 0
M  V30 19 H -2.968045 -1.370552 2.270913 0
M  V30 20 H -2.855940 -2.853842 1.290026 0
M  V30 21 H -1.990092 -1.364632 0.766316 0
M  V30 22 H -0.662877 -3.111637 4.431250 0
M  V30 23 H -2.239958 -3.620789 3.730903 0
M  V30 24 H -1.976787 -1.860252 4.276132 0
M  V30 25 H 2.211503 -1.943939 1.261566 0
M  V30 26 H 3.155694 -0.550413 -0.537708 0
M  V30 27 H 3.103888 1.293074 -1.992926 0
M  V30 28 H 1.360659 1.994338 -3.671004 0
M  V30 29 H 0.049122 2.155001 -2.343513 0
M  V30 30 H -0.163883 2.073649 -0.170961 0
M  V30 31 H -1.085179 0.718296 1.580263 0
M  V30 32 H -1.439488 -5.579283 1.362016 0
M  V30 END ATOM
M  V30 BEGIN BOND
M  V30 1 1 1 2
M  V30 2 1 2 3
M  V30 3 1 2 4
M  V30 4 1 4 5
M  V30 5 2 5 6
M  V30 6 1 6 7
M  V30 7 2 7 8
M  V30 8 1 8 9
M  V30 9 1 9 10
M  V30 10 1 10 11
M  V30 11 1 11 12
M  V30 12 1 11 13
M  V30 13 1 8 14
M  V30 14 2 14 15
M  V30 15 1 2 16
M  V30 16 2 16 17
M  V30 17 1 16 18
M  V30 18 1 15 5
M  V30 19 1 11 9
M  V30 20 1 1 19
M  V30 21 1 1 20
M  V30 22 1 1 21
M  V30 23 1 3 22
M  V30 24 1 3 23
M  V30 25 1 3 24
M  V30 26 1 6 25
M  V30 27 1 7 26
M  V30 28 1 9 27
M  V30 29 1 10 28
M  V30 30 1 10 29
M  V30 31 1 14 30
M  V30 32 1 15 31
M  V30 33 1 18 32
M  V30 END BOND
M  V30 END CTAB
M  END
>  <Dataset>  (198) 
OralDrugs

>  <Ligand_Instance>  (198) 
nan

>  <PDB_ID>  (198) 
nan

>  <Standardized_SMILES>  (198) 
CC(C)(Oc1ccc(C2CC2(Cl)Cl)cc1)C(=O)O

>  <Name>  (198) 
Ciprofibrate

>  <Pocket>  (198) 
nan

>  <ATP_Site>  (198) 
nan

>  <Peripheral>  (198) 
nan

>  <Num_H_Atoms_ProtBoundConf>  (198) 
nan

>  <Num_Resolved_Atoms>  (198) 
nan

>  <Num_Not_Resolved_Atoms>  (198) 
nan

$$$$
CHEMBL8
     RDKit          3D

  0  0  0  0  0  0  0  0  0  0999 V3000
M  V30 BEGIN CTAB
M  V30 COUNTS 42 45 0 0 0
M  V30 BEGIN ATOM
M  V30 1 O 0.378752 -6.676345 -0.213988 0
M  V30 2 C -0.432031 -5.719669 -0.434679 0
M  V30 3 O -1.532923 -6.364977 -0.986282 0
M  V30 4 C -0.274812 -4.289265 -0.182490 0
M  V30 5 C 0.939752 -3.950120 0.377795 0
M  V30 6 N 1.153466 -2.632409 0.639413 0
M  V30 7 C 2.400716 -2.180368 1.228229 0
M  V30 8 C 2.975234 -3.088739 2.337916 0
M  V30 9 C 2.473219 -1.729228 2.623825 0
M  V30 10 C 0.219711 -1.697288 0.363640 0
M  V30 11 C 0.411255 -0.351229 0.619510 0
M  V30 12 C -0.568887 0.571415 0.322400 0
M  V30 13 N -0.249937 1.922891 0.633138 0
M  V30 14 C -0.177523 3.049481 -0.276215 0
M  V30 15 C 1.198881 3.657965 -0.199930 0
M  V30 16 N 1.608516 3.966153 1.141438 0
M  V30 17 C 0.640463 3.636449 2.145342 0
M  V30 18 C 0.049219 2.278697 2.014654 0
M  V30 19 C -1.786572 0.194744 -0.244077 0
M  V30 20 F -2.703687 1.161254 -0.508704 0
M  V30 21 C -1.984535 -1.149727 -0.502469 0
M  V30 22 C -1.001309 -2.071871 -0.203983 0
M  V30 23 C -1.280108 -3.393391 -0.493764 0
M  V30 24 O -2.356953 -3.790800 -1.003054 0
M  V30 25 H -2.058301 -7.094924 -0.482977 0
M  V30 26 H 1.708202 -4.655880 0.613017 0
M  V30 27 H 3.159164 -1.754972 0.522560 0
M  V30 28 H 4.069834 -3.297125 2.283634 0
M  V30 29 H 2.364211 -3.931942 2.670468 0
M  V30 30 H 3.220516 -0.935105 2.880090 0
M  V30 31 H 1.558461 -1.631019 3.267814 0
M  V30 32 H 1.353984 -0.092930 1.053758 0
M  V30 33 H -0.299215 2.665418 -1.302966 0
M  V30 34 H -0.912630 3.837668 -0.078771 0
M  V30 35 H 1.171036 4.604337 -0.778506 0
M  V30 36 H 1.990899 3.030733 -0.645935 0
M  V30 37 H 2.575752 3.699142 1.363607 0
M  V30 38 H -0.185405 4.383535 2.219495 0
M  V30 39 H 1.160046 3.688311 3.132398 0
M  V30 40 H 0.721447 1.505086 2.466787 0
M  V30 41 H -0.897580 2.250870 2.590972 0
M  V30 42 H -2.935435 -1.417372 -0.941401 0
M  V30 END ATOM
M  V30 BEGIN BOND
M  V30 1 2 1 2
M  V30 2 1 2 3
M  V30 3 1 2 4
M  V30 4 2 4 5
M  V30 5 1 5 6
M  V30 6 1 6 7
M  V30 7 1 7 8
M  V30 8 1 8 9
M  V30 9 1 6 10
M  V30 10 2 10 11
M  V30 11 1 11 12
M  V30 12 1 12 13
M  V30 13 1 13 14
M  V30 14 1 14 15
M  V30 15 1 15 16
M  V30 16 1 16 17
M  V30 17 1 17 18
M  V30 18 2 12 19
M  V30 19 1 19 20
M  V30 20 1 19 21
M  V30 21 2 21 22
M  V30 22 1 22 23
M  V30 23 2 23 24
M  V30 24 1 23 4
M  V30 25 1 9 7
M  V30 26 1 22 10
M  V30 27 1 18 13
M  V30 28 1 3 25
M  V30 29 1 5 26
M  V30 30 1 7 27
M  V30 31 1 8 28
M  V30 32 1 8 29
M  V30 33 1 9 30
M  V30 34 1 9 31
M  V30 35 1 11 32
M  V30 36 1 14 33
M  V30 37 1 14 34
M  V30 38 1 15 35
M  V30 39 1 15 36
M  V30 40 1 16 37
M  V30 41 1 17 38
M  V30 42 1 17 39
M  V30 43 1 18 40
M  V30 44 1 18 41
M  V30 45 1 21 42
M  V30 END BOND
M  V30 END CTAB
M  END
>  <Dataset>  (199) 
OralDrugs

>  <Ligand_Instance>  (199) 
nan

>  <PDB_ID>  (199) 
nan

>  <Standardized_SMILES>  (199) 
O=C(O)c1cn(C2CC2)c2cc(N3CCNCC3)c(F)cc2c1=O

>  <Name>  (199) 
Ciprofloxacin

>  <Pocket>  (199) 
nan

>  <ATP_Site>  (199) 
nan

>  <Peripheral>  (199) 
nan

>  <Num_H_Atoms_ProtBoundConf>  (199) 
nan

>  <Num_Resolved_Atoms>  (199) 
nan

>  <Num_Not_Resolved_Atoms>  (199) 
nan

$$$$
CHEMBL549
     RDKit          3D

  0  0  0  0  0  0  0  0  0  0999 V3000
M  V30 BEGIN CTAB
M  V30 COUNTS 45 47 0 0 0
M  V30 BEGIN ATOM
M  V30 1 C -0.986323 -3.336706 -1.489994 0
M  V30 2 N 0.370208 -3.002129 -1.723163 0
M  V30 3 C 1.395007 -3.740219 -1.136681 0
M  V30 4 C 0.551351 -1.665694 -2.112921 0
M  V30 5 C 0.230115 -0.641842 -1.026227 0
M  V30 6 C 1.114904 -0.871590 0.156756 0
M  V30 7 C 0.881367 0.078449 1.313854 0
M  V30 8 C 1.098496 1.451118 0.865824 0
M  V30 9 C 0.321240 2.313418 0.139046 0
M  V30 10 C 0.644203 3.596324 -0.232772 0
M  V30 11 C 1.868409 4.099535 0.148323 0
M  V30 12 F 2.251106 5.351599 -0.181565 0
M  V30 13 C 2.734905 3.321774 0.883635 0
M  V30 14 C 2.322969 2.048111 1.208700 0
M  V30 15 O 1.848128 -0.250673 2.315546 0
M  V30 16 C 1.341123 -1.366911 2.958993 0
M  V30 17 C -0.102878 -1.034841 3.088691 0
M  V30 18 C -0.997893 -1.507646 4.019242 0
M  V30 19 C -2.293550 -1.051944 3.943226 0
M  V30 20 C -3.236430 -1.534594 4.904015 0
M  V30 21 N -4.004212 -1.923531 5.671562 0
M  V30 22 C -2.651666 -0.155317 2.959707 0
M  V30 23 C -1.676490 0.253402 2.078310 0
M  V30 24 C -0.350226 -0.126247 2.047623 0
M  V30 25 H -1.322993 -3.114258 -0.445334 0
M  V30 26 H -1.695886 -2.757146 -2.128150 0
M  V30 27 H -1.165230 -4.403800 -1.749914 0
M  V30 28 H 1.744469 -4.562351 -1.810635 0
M  V30 29 H 1.110926 -4.170570 -0.147795 0
M  V30 30 H 2.309926 -3.110226 -0.966217 0
M  V30 31 H -0.088439 -1.458963 -3.017221 0
M  V30 32 H 1.602995 -1.526639 -2.453278 0
M  V30 33 H -0.838873 -0.650961 -0.784287 0
M  V30 34 H 0.446152 0.368275 -1.482856 0
M  V30 35 H 2.174613 -0.853582 -0.167010 0
M  V30 36 H 0.946583 -1.913364 0.567876 0
M  V30 37 H -0.639432 1.943433 -0.167604 0
M  V30 38 H -0.060407 4.176460 -0.809759 0
M  V30 39 H 3.697925 3.699866 1.191043 0
M  V30 40 H 3.050259 1.476920 1.793181 0
M  V30 41 H 1.541335 -2.312786 2.436096 0
M  V30 42 H 1.751338 -1.429015 4.009138 0
M  V30 43 H -0.684110 -2.210399 4.777567 0
M  V30 44 H -3.672903 0.183646 2.925166 0
M  V30 45 H -2.053278 0.948608 1.350411 0
M  V30 END ATOM
M  V30 BEGIN BOND
M  V30 1 1 1 2
M  V30 2 1 2 3
M  V30 3 1 2 4
M  V30 4 1 4 5
M  V30 5 1 5 6
M  V30 6 1 6 7
M  V30 7 1 7 8
M  V30 8 2 8 9
M  V30 9 1 9 10
M  V30 10 2 10 11
M  V30 11 1 11 12
M  V30 12 1 11 13
M  V30 13 2 13 14
M  V30 14 1 7 15
M  V30 15 1 15 16
M  V30 16 1 16 17
M  V30 17 2 17 18
M  V30 18 1 18 19
M  V30 19 1 19 20
M  V30 20 3 20 21
M  V30 21 2 19 22
M  V30 22 1 22 23
M  V30 23 2 23 24
M  V30 24 1 24 7
M  V30 25 1 14 8
M  V30 26 1 24 17
M  V30 27 1 1 25
M  V30 28 1 1 26
M  V30 29 1 1 27
M  V30 30 1 3 28
M  V30 31 1 3 29
M  V30 32 1 3 30
M  V30 33 1 4 31
M  V30 34 1 4 32
M  V30 35 1 5 33
M  V30 36 1 5 34
M  V30 37 1 6 35
M  V30 38 1 6 36
M  V30 39 1 9 37
M  V30 40 1 10 38
M  V30 41 1 13 39
M  V30 42 1 14 40
M  V30 43 1 16 41
M  V30 44 1 16 42
M  V30 45 1 18 43
M  V30 46 1 22 44
M  V30 47 1 23 45
M  V30 END BOND
M  V30 END CTAB
M  END
>  <Dataset>  (200) 
OralDrugs

>  <Ligand_Instance>  (200) 
nan

>  <PDB_ID>  (200) 
nan

>  <Standardized_SMILES>  (200) 
CN(C)CCCC1(c2ccc(F)cc2)OCc2cc(C#N)ccc21

>  <Name>  (200) 
Citalopram

>  <Pocket>  (200) 
nan

>  <ATP_Site>  (200) 
nan

>  <Peripheral>  (200) 
nan

>  <Num_H_Atoms_ProtBoundConf>  (200) 
nan

>  <Num_Resolved_Atoms>  (200) 
nan

>  <Num_Not_Resolved_Atoms>  (200) 
nan

$$$$
CHEMBL1261
     RDKit          3D

  0  0  0  0  0  0  0  0  0  0999 V3000
M  V30 BEGIN CTAB
M  V30 COUNTS 21 20 0 0 0
M  V30 BEGIN ATOM
M  V30 1 O 0.459426 0.290897 3.477571 0
M  V30 2 C 1.539232 -0.152767 3.003725 0
M  V30 3 O 1.629824 0.011314 4.374201 0
M  V30 4 C 1.807201 -0.448590 1.575615 0
M  V30 5 C 0.519698 -0.156232 0.798114 0
M  V30 6 O -0.521627 -0.951489 1.267708 0
M  V30 7 C 0.806831 -0.597972 -0.626954 0
M  V30 8 C -0.330157 -0.385026 -1.533396 0
M  V30 9 O -0.759450 0.820526 -1.475187 0
M  V30 10 O -1.119573 -1.099777 -2.465817 0
M  V30 11 C 0.146602 1.260931 0.913609 0
M  V30 12 O -0.875159 1.945799 1.273748 0
M  V30 13 O 1.165442 2.147955 0.541267 0
M  V30 14 H 2.477024 -0.173730 4.875657 0
M  V30 15 H 2.063409 -1.523197 1.505381 0
M  V30 16 H 2.644650 0.144712 1.162830 0
M  V30 17 H -1.264548 -0.380348 1.540456 0
M  V30 18 H 1.620514 0.078861 -0.981763 0
M  V30 19 H 1.196079 -1.627653 -0.604096 0
M  V30 20 H -2.132615 -0.934720 -2.493440 0
M  V30 21 H 0.975038 3.015670 0.039328 0
M  V30 END ATOM
M  V30 BEGIN BOND
M  V30 1 2 1 2
M  V30 2 1 2 3
M  V30 3 1 2 4
M  V30 4 1 4 5
M  V30 5 1 5 6
M  V30 6 1 5 7
M  V30 7 1 7 8
M  V30 8 2 8 9
M  V30 9 1 8 10
M  V30 10 1 5 11
M  V30 11 2 11 12
M  V30 12 1 11 13
M  V30 13 1 3 14
M  V30 14 1 4 15
M  V30 15 1 4 16
M  V30 16 1 6 17
M  V30 17 1 7 18
M  V30 18 1 7 19
M  V30 19 1 10 20
M  V30 20 1 13 21
M  V30 END BOND
M  V30 END CTAB
M  END
>  <Dataset>  (201) 
OralDrugs

>  <Ligand_Instance>  (201) 
nan

>  <PDB_ID>  (201) 
nan

>  <Standardized_SMILES>  (201) 
O=C(O)CC(O)(CC(=O)O)C(=O)O

>  <Name>  (201) 
Citric Acid

>  <Pocket>  (201) 
nan

>  <ATP_Site>  (201) 
nan

>  <Peripheral>  (201) 
nan

>  <Num_H_Atoms_ProtBoundConf>  (201) 
nan

>  <Num_Resolved_Atoms>  (201) 
nan

>  <Num_Not_Resolved_Atoms>  (201) 
nan

$$$$
CHEMBL1741
     RDKit          3D

  0  0  0  0  0  0  0  0  0  0999 V3000
M  V30 BEGIN CTAB
M  V30 COUNTS 121 123 0 0 0
M  V30 BEGIN ATOM
M  V30 1 C -3.680318 -3.812181 1.896169 0
M  V30 2 C -2.663344 -2.880816 1.276772 0
M  V30 3 C -1.276252 -3.032529 1.781219 0 CFG=1
M  V30 4 O -0.343267 -2.183747 1.209271 0
M  V30 5 C 0.622197 -2.101995 0.331506 0
M  V30 6 O 0.517437 -3.291706 -0.063231 0
M  V30 7 C 1.596765 -1.143163 -0.185482 0 CFG=2
M  V30 8 C 2.742979 -1.106324 0.888780 0
M  V30 9 C 1.240271 0.255483 -0.536245 0 CFG=1
M  V30 10 O 2.436797 0.785267 -1.095632 0
M  V30 11 C 3.148394 1.677255 -0.417932 0 CFG=1
M  V30 12 C 4.591130 1.363422 -0.085159 0
M  V30 13 C 5.423577 2.628912 -0.206356 0 CFG=1
M  V30 14 C 4.894704 3.723774 0.693380 0
M  V30 15 O 6.740634 2.286656 0.041596 0
M  V30 16 C 7.018269 1.756199 1.264421 0
M  V30 17 C 5.415930 3.155340 -1.647719 0 CFG=1
M  V30 18 O 6.435002 2.655213 -2.415801 0
M  V30 19 C 4.057227 2.803871 -2.216886 0 CFG=2
M  V30 20 C 3.620008 3.825135 -3.245804 0
M  V30 21 O 3.174490 2.888592 -1.145478 0
M  V30 22 C 0.173618 0.615264 -1.425360 0 CFG=2
M  V30 23 C 0.395635 2.088904 -1.857816 0
M  V30 24 C -1.283222 0.497684 -1.252213 0 CFG=1
M  V30 25 O -1.815495 -0.775684 -1.118374 0
M  V30 26 C -2.310343 -1.356329 -2.246893 0 CFG=2
M  V30 27 O -3.710836 -1.474408 -2.286642 0
M  V30 28 C -4.119969 -1.392157 -3.625051 0 CFG=2
M  V30 29 C -5.618227 -1.270197 -3.647024 0
M  V30 30 C -3.601763 -2.579857 -4.363915 0
M  V30 31 C -2.782828 -3.494241 -3.486745 0 CFG=2
M  V30 32 N -3.621338 -4.266798 -2.581897 0
M  V30 33 C -4.608694 -4.947158 -3.429405 0
M  V30 34 C -2.782543 -5.342376 -2.053547 0
M  V30 35 C -1.773709 -2.684744 -2.651061 0 CFG=1
M  V30 36 O -0.640735 -2.558921 -3.490720 0
M  V30 37 C -2.115632 1.565873 -0.626783 0 CFG=2
M  V30 38 C -3.462959 1.608288 -1.457967 0
M  V30 39 O -1.696711 2.828122 -0.613214 0
M  V30 40 C -2.361737 3.861789 -0.084800 0
M  V30 41 C -2.616747 1.177091 0.740022 0
M  V30 42 C -1.598160 0.844630 1.779773 0 CFG=1
M  V30 43 C -0.782357 2.035846 2.246174 0
M  V30 44 C -2.196664 0.098650 2.924574 0
M  V30 45 O -3.385979 0.257815 2.603575 0
M  V30 46 C -1.583848 -0.596915 4.050969 0 CFG=2
M  V30 47 C -0.987642 0.462764 5.016521 0
M  V30 48 C -0.595412 -1.646905 3.799926 0 CFG=1
M  V30 49 O -0.093417 -2.002048 5.108067 0
M  V30 50 C -1.017275 -3.000342 3.251560 0 CFG=1
M  V30 51 C -1.830474 -3.821424 4.158401 0
M  V30 52 O 0.306638 -3.672411 3.311772 0
M  V30 53 H -3.293904 -4.733755 2.303139 0
M  V30 54 H -4.425863 -4.156109 1.095828 0
M  V30 55 H -4.357635 -3.222410 2.578347 0
M  V30 56 H -2.611026 -3.250749 0.194147 0
M  V30 57 H -3.054810 -1.873529 1.148309 0
M  V30 58 H -1.025585 -4.122618 1.422963 0
M  V30 59 H 2.123338 -1.676021 -1.037478 0
M  V30 60 H 2.572989 -1.959950 1.609167 0
M  V30 61 H 3.715254 -1.286561 0.454783 0
M  V30 62 H 2.724519 -0.213380 1.481180 0
M  V30 63 H 1.246645 0.844013 0.448656 0
M  V30 64 H 2.663945 1.948168 0.544842 0
M  V30 65 H 4.646539 1.100756 0.991537 0
M  V30 66 H 5.074402 0.659998 -0.763822 0
M  V30 67 H 5.682272 4.253837 1.260715 0
M  V30 68 H 4.119213 3.353013 1.393834 0
M  V30 69 H 4.376818 4.491269 0.070574 0
M  V30 70 H 6.533591 0.825576 1.544263 0
M  V30 71 H 6.918882 2.545694 2.071775 0
M  V30 72 H 8.124678 1.541130 1.275452 0
M  V30 73 H 5.480498 4.270233 -1.624074 0
M  V30 74 H 7.000133 2.017650 -1.908133 0
M  V30 75 H 4.060828 1.809987 -2.709977 0
M  V30 76 H 4.289438 4.687143 -3.252728 0
M  V30 77 H 2.543591 4.129884 -3.089534 0
M  V30 78 H 3.612739 3.379419 -4.284325 0
M  V30 79 H 0.405463 0.069874 -2.415057 0
M  V30 80 H 1.186408 2.124312 -2.637568 0
M  V30 81 H 0.517781 2.672072 -0.974105 0
M  V30 82 H -0.510175 2.464947 -2.419219 0
M  V30 83 H -1.610894 0.651956 -2.386012 0
M  V30 84 H -2.104468 -0.674641 -3.129521 0
M  V30 85 H -3.625750 -0.474053 -4.043950 0
M  V30 86 H -6.059946 -1.559035 -2.664562 0
M  V30 87 H -5.850666 -0.191316 -3.779349 0
M  V30 88 H -6.070243 -1.857757 -4.471602 0
M  V30 89 H -4.376755 -3.171865 -4.852772 0
M  V30 90 H -2.908859 -2.267234 -5.204362 0
M  V30 91 H -2.260436 -4.216320 -4.139436 0
M  V30 92 H -4.995931 -5.798023 -2.797057 0
M  V30 93 H -4.180567 -5.355885 -4.344016 0
M  V30 94 H -5.486136 -4.281133 -3.570424 0
M  V30 95 H -3.223652 -6.343198 -2.294323 0
M  V30 96 H -1.777097 -5.357308 -2.509451 0
M  V30 97 H -2.713422 -5.322685 -0.947738 0
M  V30 98 H -1.473915 -3.369425 -1.866085 0
M  V30 99 H -0.867101 -1.973978 -4.275091 0
M  V30 100 H -4.178119 0.886463 -1.037188 0
M  V30 101 H -3.176717 1.253381 -2.465975 0
M  V30 102 H -3.835979 2.611707 -1.573627 0
M  V30 103 H -3.344560 4.049337 -0.539328 0
M  V30 104 H -2.484659 3.897540 1.023275 0
M  V30 105 H -1.765564 4.801577 -0.379982 0
M  V30 106 H -3.230029 2.018783 1.184268 0
M  V30 107 H -3.347908 0.346819 0.677554 0
M  V30 108 H -0.820876 0.177968 1.327480 0
M  V30 109 H -1.383653 2.777971 2.810383 0
M  V30 110 H 0.052998 1.709145 2.906824 0
M  V30 111 H -0.301292 2.561845 1.407086 0
M  V30 112 H -2.426610 -1.057685 4.635978 0
M  V30 113 H 0.116212 0.481147 4.950133 0
M  V30 114 H -1.255804 0.146195 6.034726 0
M  V30 115 H -1.491265 1.415185 4.807736 0
M  V30 116 H 0.307068 -1.337485 3.243066 0
M  V30 117 H 0.856676 -2.241829 5.047550 0
M  V30 118 H -1.687056 -4.926282 3.971864 0
M  V30 119 H -1.340248 -3.720068 5.194283 0
M  V30 120 H -2.868681 -3.562461 4.323193 0
M  V30 121 H 0.101660 -4.632594 3.119283 0
M  V30 END ATOM
M  V30 BEGIN BOND
M  V30 1 1 1 2
M  V30 2 1 2 3
M  V30 3 1 3 4
M  V30 4 1 4 5
M  V30 5 2 5 6
M  V30 6 1 5 7
M  V30 7 1 7 8
M  V30 8 1 7 9
M  V30 9 1 9 10
M  V30 10 1 10 11
M  V30 11 1 11 12
M  V30 12 1 12 13
M  V30 13 1 13 14
M  V30 14 1 13 15 CFG=1
M  V30 15 1 15 16
M  V30 16 1 13 17
M  V30 17 1 17 18
M  V30 18 1 17 19
M  V30 19 1 19 20
M  V30 20 1 19 21
M  V30 21 1 9 22
M  V30 22 1 22 23
M  V30 23 1 22 24
M  V30 24 1 24 25
M  V30 25 1 25 26
M  V30 26 1 26 27
M  V30 27 1 27 28
M  V30 28 1 28 29
M  V30 29 1 28 30
M  V30 30 1 30 31
M  V30 31 1 31 32
M  V30 32 1 32 33
M  V30 33 1 32 34
M  V30 34 1 31 35
M  V30 35 1 35 36
M  V30 36 1 24 37
M  V30 37 1 37 38
M  V30 38 1 37 39 CFG=1
M  V30 39 1 39 40
M  V30 40 1 37 41
M  V30 41 1 41 42
M  V30 42 1 42 43
M  V30 43 1 42 44
M  V30 44 2 44 45
M  V30 45 1 44 46
M  V30 46 1 46 47
M  V30 47 1 46 48
M  V30 48 1 48 49
M  V30 49 1 48 50
M  V30 50 1 50 51
M  V30 51 1 50 52 CFG=3
M  V30 52 1 50 3
M  V30 53 1 21 11
M  V30 54 1 35 26
M  V30 55 1 1 53
M  V30 56 1 1 54
M  V30 57 1 1 55
M  V30 58 1 2 56
M  V30 59 1 2 57
M  V30 60 1 3 58 CFG=3
M  V30 61 1 7 59 CFG=3
M  V30 62 1 8 60
M  V30 63 1 8 61
M  V30 64 1 8 62
M  V30 65 1 9 63 CFG=1
M  V30 66 1 11 64 CFG=1
M  V30 67 1 12 65
M  V30 68 1 12 66
M  V30 69 1 14 67
M  V30 70 1 14 68
M  V30 71 1 14 69
M  V30 72 1 16 70
M  V30 73 1 16 71
M  V30 74 1 16 72
M  V30 75 1 17 73 CFG=1
M  V30 76 1 18 74
M  V30 77 1 19 75 CFG=3
M  V30 78 1 20 76
M  V30 79 1 20 77
M  V30 80 1 20 78
M  V30 81 1 22 79 CFG=3
M  V30 82 1 23 80
M  V30 83 1 23 81
M  V30 84 1 23 82
M  V30 85 1 24 83 CFG=3
M  V30 86 1 26 84 CFG=3
M  V30 87 1 28 85 CFG=3
M  V30 88 1 29 86
M  V30 89 1 29 87
M  V30 90 1 29 88
M  V30 91 1 30 89
M  V30 92 1 30 90
M  V30 93 1 31 91 CFG=3
M  V30 94 1 33 92
M  V30 95 1 33 93
M  V30 96 1 33 94
M  V30 97 1 34 95
M  V30 98 1 34 96
M  V30 99 1 34 97
M  V30 100 1 35 98 CFG=1
M  V30 101 1 36 99
M  V30 102 1 38 100
M  V30 103 1 38 101
M  V30 104 1 38 102
M  V30 105 1 40 103
M  V30 106 1 40 104
M  V30 107 1 40 105
M  V30 108 1 41 106
M  V30 109 1 41 107
M  V30 110 1 42 108 CFG=3
M  V30 111 1 43 109
M  V30 112 1 43 110
M  V30 113 1 43 111
M  V30 114 1 46 112 CFG=1
M  V30 115 1 47 113
M  V30 116 1 47 114
M  V30 117 1 47 115
M  V30 118 1 48 116 CFG=3
M  V30 119 1 49 117
M  V30 120 1 51 118
M  V30 121 1 51 119
M  V30 122 1 51 120
M  V30 123 1 52 121
M  V30 END BOND
M  V30 END CTAB
M  END
>  <Dataset>  (202) 
OralDrugs

>  <Ligand_Instance>  (202) 
nan

>  <PDB_ID>  (202) 
nan

>  <Standardized_SMILES>  (202) 
CC[C@H]1OC(=O)[C@H](C)[C@@H](O[C@H]2C[C@@](C)(OC)[C@@H](O)[C@H](C)O2)[C@H](C)[C@@H](O[C@@H]2O[C@H](C)C[C@H](N(C)C)[C@H]2O)[C@](C)(OC)C[C@@H](C)C(=O)[C@H](C)[C@@H](O)[C@]1(C)O

>  <Name>  (202) 
Clarithromycin

>  <Pocket>  (202) 
nan

>  <ATP_Site>  (202) 
nan

>  <Peripheral>  (202) 
nan

>  <Num_H_Atoms_ProtBoundConf>  (202) 
nan

>  <Num_Resolved_Atoms>  (202) 
nan

>  <Num_Not_Resolved_Atoms>  (202) 
nan

$$$$
CHEMBL1003
     RDKit          3D

  0  0  0  0  0  0  0  0  0  0999 V3000
M  V30 BEGIN CTAB
M  V30 COUNTS 23 24 0 0 0
M  V30 BEGIN ATOM
M  V30 1 O 1.768495 -1.049697 3.248038 0
M  V30 2 C 1.407113 0.015623 2.683073 0
M  V30 3 O 0.875761 0.631067 3.811704 0
M  V30 4 C 1.634536 0.222000 1.232082 0 CFG=1
M  V30 5 C 0.757484 -0.700504 0.434574 0
M  V30 6 C 0.909911 -2.014426 0.395961 0
M  V30 7 C -0.044335 -2.788004 -0.444063 0
M  V30 8 O -0.930690 -1.881353 -1.028974 0
M  V30 9 O -0.182976 0.132717 -0.201521 0
M  V30 10 C -0.305079 1.292652 0.635442 0 CFG=2
M  V30 11 C -0.504965 2.593300 -0.036897 0
M  V30 12 C 0.823164 2.928805 0.577137 0
M  V30 13 O 1.488071 3.968470 0.778884 0
M  V30 14 N 1.105844 1.548397 0.883804 0
M  V30 15 H -0.033800 0.359660 4.189653 0
M  V30 16 H 2.692754 0.106627 0.999670 0
M  V30 17 H 1.705585 -2.478160 0.963141 0
M  V30 18 H 0.482850 -3.372372 -1.223992 0
M  V30 19 H -0.590401 -3.528706 0.206345 0
M  V30 20 H -1.761137 -2.322949 -1.313154 0
M  V30 21 H -0.896177 1.031092 1.514992 0
M  V30 22 H -1.350856 3.143405 0.427716 0
M  V30 23 H -0.536505 2.639197 -1.124503 0
M  V30 END ATOM
M  V30 BEGIN BOND
M  V30 1 2 1 2
M  V30 2 1 2 3
M  V30 3 1 2 4
M  V30 4 1 4 5
M  V30 5 2 5 6
M  V30 6 1 6 7
M  V30 7 1 7 8
M  V30 8 1 5 9
M  V30 9 1 9 10
M  V30 10 1 10 11
M  V30 11 1 11 12
M  V30 12 2 12 13
M  V30 13 1 12 14
M  V30 14 1 14 4
M  V30 15 1 14 10
M  V30 16 1 3 15
M  V30 17 1 4 16 CFG=1
M  V30 18 1 6 17
M  V30 19 1 7 18
M  V30 20 1 7 19
M  V30 21 1 8 20
M  V30 22 1 10 21 CFG=1
M  V30 23 1 11 22
M  V30 24 1 11 23
M  V30 END BOND
M  V30 END CTAB
M  END
>  <Dataset>  (203) 
OralDrugs

>  <Ligand_Instance>  (203) 
nan

>  <PDB_ID>  (203) 
nan

>  <Standardized_SMILES>  (203) 
O=C(O)[C@H]1/C(=C/CO)O[C@@H]2CC(=O)N21

>  <Name>  (203) 
Clavulanate Potassium

>  <Pocket>  (203) 
nan

>  <ATP_Site>  (203) 
nan

>  <Peripheral>  (203) 
nan

>  <Num_H_Atoms_ProtBoundConf>  (203) 
nan

>  <Num_Resolved_Atoms>  (203) 
nan

>  <Num_Not_Resolved_Atoms>  (203) 
nan

$$$$
CHEMBL325109
     RDKit          3D

  0  0  0  0  0  0  0  0  0  0999 V3000
M  V30 BEGIN CTAB
M  V30 COUNTS 50 52 0 0 0
M  V30 BEGIN ATOM
M  V30 1 C 4.573344 -1.342541 1.847708 0
M  V30 2 O 3.614383 -0.343216 1.620419 0
M  V30 3 C 3.950996 0.986128 1.463207 0
M  V30 4 C 5.284298 1.321931 1.535852 0
M  V30 5 C 5.651271 2.638428 1.383167 0
M  V30 6 N 7.014055 3.039958 1.449209 0
M  V30 7 C 4.649799 3.558208 1.163269 0
M  V30 8 Cl 5.088627 5.231705 0.966693 0
M  V30 9 C 3.329444 3.180189 1.097744 0
M  V30 10 C 2.927262 1.874042 1.245800 0
M  V30 11 C 1.507344 1.605683 1.155915 0
M  V30 12 O 0.693109 2.540328 0.950715 0
M  V30 13 N 0.817362 0.375663 1.267443 0
M  V30 14 C -0.597173 0.185679 1.166964 0
M  V30 15 C -1.164855 -0.384643 2.411180 0
M  V30 16 C -2.023479 -1.594935 2.271008 0
M  V30 17 N -2.726480 -1.758242 1.046964 0
M  V30 18 C -2.896552 -3.101656 0.617099 0
M  V30 19 C -3.628139 -3.256883 -0.658492 0
M  V30 20 C -3.117408 -3.300456 -1.933715 0
M  V30 21 C -3.959598 -3.451749 -3.010643 0
M  V30 22 C -5.327166 -3.565544 -2.880116 0
M  V30 23 C -5.867220 -3.523869 -1.594366 0
M  V30 24 C -5.009610 -3.370825 -0.512253 0
M  V30 25 C -2.492864 -0.779436 0.052265 0
M  V30 26 C -0.974935 -0.624452 -0.073149 0
M  V30 27 H 4.068571 -2.337254 1.797509 0
M  V30 28 H 5.369615 -1.323077 1.086506 0
M  V30 29 H 5.005870 -1.257883 2.879899 0
M  V30 30 H 6.025904 0.559996 1.710117 0
M  V30 31 H 7.147358 3.084591 2.497498 0
M  V30 32 H 7.588151 3.204485 0.578467 0
M  V30 33 H 2.597892 3.972574 0.920103 0
M  V30 34 H 1.380948 -0.481314 1.439152 0
M  V30 35 H -1.043998 1.187778 0.985582 0
M  V30 36 H -1.739694 0.400657 2.944264 0
M  V30 37 H -0.310810 -0.610172 3.118370 0
M  V30 38 H -2.736162 -1.651899 3.125931 0
M  V30 39 H -1.346131 -2.482935 2.388821 0
M  V30 40 H -1.891112 -3.563914 0.515153 0
M  V30 41 H -3.392215 -3.676675 1.436011 0
M  V30 42 H -2.048467 -3.208379 -1.991019 0
M  V30 43 H -3.528388 -3.481526 -3.987533 0
M  V30 44 H -6.003575 -3.685109 -3.717529 0
M  V30 45 H -6.931912 -3.612184 -1.488750 0
M  V30 46 H -5.534615 -3.350745 0.446521 0
M  V30 47 H -2.966618 -1.082135 -0.891709 0
M  V30 48 H -2.911153 0.204161 0.344950 0
M  V30 49 H -0.727198 0.012056 -0.931162 0
M  V30 50 H -0.486555 -1.602029 -0.087777 0
M  V30 END ATOM
M  V30 BEGIN BOND
M  V30 1 1 1 2
M  V30 2 1 2 3
M  V30 3 2 3 4
M  V30 4 1 4 5
M  V30 5 1 5 6
M  V30 6 2 5 7
M  V30 7 1 7 8
M  V30 8 1 7 9
M  V30 9 2 9 10
M  V30 10 1 10 11
M  V30 11 2 11 12
M  V30 12 1 11 13
M  V30 13 1 13 14
M  V30 14 1 14 15
M  V30 15 1 15 16
M  V30 16 1 16 17
M  V30 17 1 17 18
M  V30 18 1 18 19
M  V30 19 2 19 20
M  V30 20 1 20 21
M  V30 21 2 21 22
M  V30 22 1 22 23
M  V30 23 2 23 24
M  V30 24 1 17 25
M  V30 25 1 25 26
M  V30 26 1 10 3
M  V30 27 1 26 14
M  V30 28 1 24 19
M  V30 29 1 1 27
M  V30 30 1 1 28
M  V30 31 1 1 29
M  V30 32 1 4 30
M  V30 33 1 6 31
M  V30 34 1 6 32
M  V30 35 1 9 33
M  V30 36 1 13 34
M  V30 37 1 14 35
M  V30 38 1 15 36
M  V30 39 1 15 37
M  V30 40 1 16 38
M  V30 41 1 16 39
M  V30 42 1 18 40
M  V30 43 1 18 41
M  V30 44 1 20 42
M  V30 45 1 21 43
M  V30 46 1 22 44
M  V30 47 1 23 45
M  V30 48 1 24 46
M  V30 49 1 25 47
M  V30 50 1 25 48
M  V30 51 1 26 49
M  V30 52 1 26 50
M  V30 END BOND
M  V30 END CTAB
M  END
>  <Dataset>  (204) 
OralDrugs

>  <Ligand_Instance>  (204) 
nan

>  <PDB_ID>  (204) 
nan

>  <Standardized_SMILES>  (204) 
COc1cc(N)c(Cl)cc1C(=O)NC1CCN(Cc2ccccc2)CC1

>  <Name>  (204) 
Clebopride

>  <Pocket>  (204) 
nan

>  <ATP_Site>  (204) 
nan

>  <Peripheral>  (204) 
nan

>  <Num_H_Atoms_ProtBoundConf>  (204) 
nan

>  <Num_Resolved_Atoms>  (204) 
nan

>  <Num_Not_Resolved_Atoms>  (204) 
nan

$$$$
CHEMBL1626
     RDKit          3D

  0  0  0  0  0  0  0  0  0  0999 V3000
M  V30 BEGIN CTAB
M  V30 COUNTS 50 52 0 0 0
M  V30 BEGIN ATOM
M  V30 1 C -0.791776 -3.780959 1.163615 0
M  V30 2 N -0.044462 -3.702145 2.383009 0
M  V30 3 C -0.936191 -3.588509 3.493409 0
M  V30 4 C -0.976638 -2.072540 3.730637 0
M  V30 5 C 0.527703 -1.804447 3.612368 0
M  V30 6 C 0.906585 -2.622143 2.440478 0 CFG=2
M  V30 7 C 1.046819 -1.881743 1.131731 0
M  V30 8 C 2.034396 -0.762515 1.176019 0
M  V30 9 O 2.177053 -0.116924 0.022710 0
M  V30 10 C 1.265781 0.575675 -0.646594 0 CFG=2
M  V30 11 C 2.040475 1.143464 -1.888885 0
M  V30 12 C 0.666775 1.730098 0.075726 0
M  V30 13 C 0.892509 3.034124 -0.389737 0
M  V30 14 C 0.376806 4.159278 0.215540 0
M  V30 15 C -0.404433 4.037662 1.336450 0
M  V30 16 C -0.654489 2.769647 1.832438 0
M  V30 17 C -0.122876 1.696033 1.198678 0
M  V30 18 C 0.206391 -0.226630 -1.300621 0
M  V30 19 C -1.164233 0.052181 -1.241357 0
M  V30 20 C -2.155332 -0.664437 -1.850169 0
M  V30 21 C -1.771382 -1.777021 -2.601126 0
M  V30 22 Cl -2.987487 -2.742285 -3.410106 0
M  V30 23 C -0.444041 -2.131107 -2.718122 0
M  V30 24 C 0.481157 -1.342617 -2.064959 0
M  V30 25 H -1.506057 -2.941050 1.002362 0
M  V30 26 H -1.429590 -4.697348 1.261977 0
M  V30 27 H -0.152509 -3.963687 0.271773 0
M  V30 28 H -0.420606 -4.036097 4.393730 0
M  V30 29 H -1.928114 -4.016653 3.318291 0
M  V30 30 H -1.526512 -1.658357 2.884144 0
M  V30 31 H -1.385234 -1.830211 4.710393 0
M  V30 32 H 0.759615 -0.748239 3.607131 0
M  V30 33 H 0.969284 -2.256293 4.543345 0
M  V30 34 H 1.892305 -3.097878 2.644934 0
M  V30 35 H 1.417836 -2.583203 0.341751 0
M  V30 36 H 0.081271 -1.497056 0.782510 0
M  V30 37 H 3.050042 -1.241787 1.396675 0
M  V30 38 H 1.889810 -0.106987 2.074637 0
M  V30 39 H 2.357131 0.212316 -2.428995 0
M  V30 40 H 1.358684 1.673653 -2.550953 0
M  V30 41 H 2.947000 1.660370 -1.574783 0
M  V30 42 H 1.497629 3.244474 -1.269857 0
M  V30 43 H 0.568026 5.157595 -0.166448 0
M  V30 44 H -0.812492 4.901815 1.818583 0
M  V30 45 H -1.270414 2.635348 2.720775 0
M  V30 46 H -0.328471 0.702520 1.600093 0
M  V30 47 H -1.484675 0.905627 -0.668665 0
M  V30 48 H -3.189932 -0.392723 -1.761655 0
M  V30 49 H -0.136781 -2.993823 -3.300286 0
M  V30 50 H 1.515164 -1.655905 -2.183332 0
M  V30 END ATOM
M  V30 BEGIN BOND
M  V30 1 1 1 2
M  V30 2 1 2 3
M  V30 3 1 3 4
M  V30 4 1 4 5
M  V30 5 1 5 6
M  V30 6 1 6 7
M  V30 7 1 7 8
M  V30 8 1 8 9
M  V30 9 1 10 9 CFG=1
M  V30 10 1 10 11
M  V30 11 1 10 12
M  V30 12 2 12 13
M  V30 13 1 13 14
M  V30 14 2 14 15
M  V30 15 1 15 16
M  V30 16 2 16 17
M  V30 17 1 10 18
M  V30 18 2 18 19
M  V30 19 1 19 20
M  V30 20 2 20 21
M  V30 21 1 21 22
M  V30 22 1 21 23
M  V30 23 2 23 24
M  V30 24 1 6 2
M  V30 25 1 17 12
M  V30 26 1 24 18
M  V30 27 1 1 25
M  V30 28 1 1 26
M  V30 29 1 1 27
M  V30 30 1 3 28
M  V30 31 1 3 29
M  V30 32 1 4 30
M  V30 33 1 4 31
M  V30 34 1 5 32
M  V30 35 1 5 33
M  V30 36 1 6 34 CFG=1
M  V30 37 1 7 35
M  V30 38 1 7 36
M  V30 39 1 8 37
M  V30 40 1 8 38
M  V30 41 1 11 39
M  V30 42 1 11 40
M  V30 43 1 11 41
M  V30 44 1 13 42
M  V30 45 1 14 43
M  V30 46 1 15 44
M  V30 47 1 16 45
M  V30 48 1 17 46
M  V30 49 1 19 47
M  V30 50 1 20 48
M  V30 51 1 23 49
M  V30 52 1 24 50
M  V30 END BOND
M  V30 END CTAB
M  END
>  <Dataset>  (205) 
OralDrugs

>  <Ligand_Instance>  (205) 
nan

>  <PDB_ID>  (205) 
nan

>  <Standardized_SMILES>  (205) 
CN1CCC[C@@H]1CCO[C@](C)(c1ccccc1)c1ccc(Cl)cc1

>  <Name>  (205) 
Clemastine

>  <Pocket>  (205) 
nan

>  <ATP_Site>  (205) 
nan

>  <Peripheral>  (205) 
nan

>  <Num_H_Atoms_ProtBoundConf>  (205) 
nan

>  <Num_Resolved_Atoms>  (205) 
nan

>  <Num_Not_Resolved_Atoms>  (205) 
nan

$$$$
CHEMBL49080
     RDKit          3D

  0  0  0  0  0  0  0  0  0  0999 V3000
M  V30 BEGIN CTAB
M  V30 COUNTS 35 35 0 0 0
M  V30 BEGIN ATOM
M  V30 1 C -1.289359 -3.360629 0.380653 0
M  V30 2 C -0.366468 -3.098815 1.517917 0
M  V30 3 C -1.229824 -2.448161 2.609816 0
M  V30 4 C 0.037076 -4.471866 2.110465 0
M  V30 5 N 0.819642 -2.399553 1.305388 0
M  V30 6 C 0.932661 -1.043830 1.065562 0
M  V30 7 C 0.442840 -0.501132 -0.214248 0
M  V30 8 O -0.911546 -0.687559 -0.413988 0
M  V30 9 C 0.648741 0.978498 -0.308187 0
M  V30 10 C 0.061835 1.597992 -1.403204 0
M  V30 11 C 0.195803 2.969886 -1.550676 0
M  V30 12 Cl -0.553862 3.713669 -2.938274 0
M  V30 13 C 0.906731 3.664024 -0.603969 0
M  V30 14 N 0.982886 5.062896 -0.846644 0
M  V30 15 C 1.479420 3.024936 0.473286 0
M  V30 16 Cl 2.368026 3.989877 1.633987 0
M  V30 17 C 1.363587 1.668062 0.645549 0
M  V30 18 H -0.838581 -3.360050 -0.624863 0
M  V30 19 H -1.654683 -4.441812 0.486329 0
M  V30 20 H -2.260188 -2.801451 0.448578 0
M  V30 21 H -0.635395 -1.853993 3.309432 0
M  V30 22 H -1.736905 -3.246435 3.187251 0
M  V30 23 H -2.046176 -1.859689 2.131261 0
M  V30 24 H 0.769460 -4.245560 2.911095 0
M  V30 25 H -0.870315 -4.976927 2.440193 0
M  V30 26 H 0.483488 -5.034232 1.269740 0
M  V30 27 H 1.664166 -2.996540 1.299051 0
M  V30 28 H 2.058268 -0.804869 1.080141 0
M  V30 29 H 0.498786 -0.383763 1.878165 0
M  V30 30 H 0.953083 -0.918511 -1.109152 0
M  V30 31 H -1.393235 0.030016 0.077411 0
M  V30 32 H -0.492438 1.031724 -2.134337 0
M  V30 33 H 0.215906 5.366361 -0.176845 0
M  V30 34 H 1.481484 5.796056 -1.395047 0
M  V30 35 H 1.809249 1.169927 1.487453 0
M  V30 END ATOM
M  V30 BEGIN BOND
M  V30 1 1 1 2
M  V30 2 1 2 3
M  V30 3 1 2 4
M  V30 4 1 2 5
M  V30 5 1 5 6
M  V30 6 1 6 7
M  V30 7 1 7 8
M  V30 8 1 7 9
M  V30 9 2 9 10
M  V30 10 1 10 11
M  V30 11 1 11 12
M  V30 12 2 11 13
M  V30 13 1 13 14
M  V30 14 1 13 15
M  V30 15 1 15 16
M  V30 16 2 15 17
M  V30 17 1 17 9
M  V30 18 1 1 18
M  V30 19 1 1 19
M  V30 20 1 1 20
M  V30 21 1 3 21
M  V30 22 1 3 22
M  V30 23 1 3 23
M  V30 24 1 4 24
M  V30 25 1 4 25
M  V30 26 1 4 26
M  V30 27 1 5 27
M  V30 28 1 6 28
M  V30 29 1 6 29
M  V30 30 1 7 30
M  V30 31 1 8 31
M  V30 32 1 10 32
M  V30 33 1 14 33
M  V30 34 1 14 34
M  V30 35 1 17 35
M  V30 END BOND
M  V30 END CTAB
M  END
>  <Dataset>  (206) 
OralDrugs

>  <Ligand_Instance>  (206) 
nan

>  <PDB_ID>  (206) 
nan

>  <Standardized_SMILES>  (206) 
CC(C)(C)NCC(O)c1cc(Cl)c(N)c(Cl)c1

>  <Name>  (206) 
Clenbuterol

>  <Pocket>  (206) 
nan

>  <ATP_Site>  (206) 
nan

>  <Peripheral>  (206) 
nan

>  <Num_H_Atoms_ProtBoundConf>  (206) 
nan

>  <Num_Resolved_Atoms>  (206) 
nan

>  <Num_Not_Resolved_Atoms>  (206) 
nan

$$$$
CHEMBL620
     RDKit          3D

  0  0  0  0  0  0  0  0  0  0999 V3000
M  V30 BEGIN CTAB
M  V30 COUNTS 52 55 0 0 0
M  V30 BEGIN ATOM
M  V30 1 C 2.167983 -3.096080 3.555682 0
M  V30 2 N 2.132180 -2.879120 2.119131 0 CHG=1 VAL=4
M  V30 3 C 0.861910 -3.404941 1.650799 0
M  V30 4 C 0.777155 -3.352483 0.139691 0
M  V30 5 C 1.941436 -2.552562 -0.361471 0
M  V30 6 C 3.250919 -3.242631 0.010369 0
M  V30 7 C 3.212616 -3.588427 1.484157 0
M  V30 8 C 1.943582 -1.220603 0.359101 0
M  V30 9 O 0.708404 -0.576839 0.308552 0
M  V30 10 C 0.475600 0.675356 -0.176134 0
M  V30 11 O 1.426897 1.379107 -0.640372 0
M  V30 12 C -0.732549 1.522476 -0.317747 0
M  V30 13 O -0.370228 2.756242 -0.876830 0
M  V30 14 C -1.354447 1.795499 1.003998 0
M  V30 15 C -2.040401 2.973770 1.230265 0
M  V30 16 C -2.649476 3.303106 2.422645 0
M  V30 17 C -2.573231 2.401318 3.463827 0
M  V30 18 C -1.903160 1.206960 3.302937 0
M  V30 19 C -1.315164 0.938037 2.083971 0
M  V30 20 C -1.691256 0.913002 -1.280237 0
M  V30 21 C -2.801976 1.567141 -1.716672 0
M  V30 22 C -3.743241 1.057571 -2.618364 0
M  V30 23 C -3.500916 -0.231458 -3.096194 0
M  V30 24 C -2.391967 -0.936166 -2.686389 0
M  V30 25 C -1.508901 -0.339905 -1.781324 0
M  V30 26 C 2.254834 -1.477621 1.828394 0
M  V30 27 H 1.880109 -4.141073 3.805920 0
M  V30 28 H 3.171461 -2.931461 3.996155 0
M  V30 29 H 1.444141 -2.419543 4.054402 0
M  V30 30 H 0.813075 -4.474670 1.984622 0
M  V30 31 H 0.031039 -2.887630 2.156482 0
M  V30 32 H -0.156473 -2.889650 -0.192295 0
M  V30 33 H 0.850973 -4.357841 -0.320387 0
M  V30 34 H 1.899478 -2.379168 -1.453461 0
M  V30 35 H 4.041953 -2.476723 -0.138240 0
M  V30 36 H 3.487962 -4.097343 -0.634135 0
M  V30 37 H 3.106256 -4.693815 1.598731 0
M  V30 38 H 4.158336 -3.309367 1.991701 0
M  V30 39 H 2.797374 -0.652434 -0.034820 0
M  V30 40 H 0.170263 2.644896 -1.684398 0
M  V30 41 H -2.151186 3.742568 0.474025 0
M  V30 42 H -3.183311 4.229470 2.585464 0
M  V30 43 H -3.050540 2.646465 4.416111 0
M  V30 44 H -1.829406 0.482354 4.105819 0
M  V30 45 H -0.799218 0.002107 1.981091 0
M  V30 46 H -3.048850 2.557691 -1.392003 0
M  V30 47 H -4.612815 1.602357 -2.943444 0
M  V30 48 H -4.173989 -0.725734 -3.805916 0
M  V30 49 H -2.229762 -1.936735 -3.075195 0
M  V30 50 H -0.675095 -0.959223 -1.519081 0
M  V30 51 H 3.278936 -1.159156 2.106995 0
M  V30 52 H 1.567026 -0.903634 2.507762 0
M  V30 END ATOM
M  V30 BEGIN BOND
M  V30 1 1 1 2
M  V30 2 1 2 3
M  V30 3 1 3 4
M  V30 4 1 4 5
M  V30 5 1 5 6
M  V30 6 1 6 7
M  V30 7 1 5 8
M  V30 8 1 8 9
M  V30 9 1 9 10
M  V30 10 2 10 11
M  V30 11 1 10 12
M  V30 12 1 12 13
M  V30 13 1 12 14
M  V30 14 2 14 15
M  V30 15 1 15 16
M  V30 16 2 16 17
M  V30 17 1 17 18
M  V30 18 2 18 19
M  V30 19 1 12 20
M  V30 20 2 20 21
M  V30 21 1 21 22
M  V30 22 2 22 23
M  V30 23 1 23 24
M  V30 24 2 24 25
M  V30 25 1 8 26
M  V30 26 1 7 2
M  V30 27 1 19 14
M  V30 28 1 25 20
M  V30 29 1 26 2
M  V30 30 1 1 27
M  V30 31 1 1 28
M  V30 32 1 1 29
M  V30 33 1 3 30
M  V30 34 1 3 31
M  V30 35 1 4 32
M  V30 36 1 4 33
M  V30 37 1 5 34
M  V30 38 1 6 35
M  V30 39 1 6 36
M  V30 40 1 7 37
M  V30 41 1 7 38
M  V30 42 1 8 39
M  V30 43 1 13 40
M  V30 44 1 15 41
M  V30 45 1 16 42
M  V30 46 1 17 43
M  V30 47 1 18 44
M  V30 48 1 19 45
M  V30 49 1 21 46
M  V30 50 1 22 47
M  V30 51 1 23 48
M  V30 52 1 24 49
M  V30 53 1 25 50
M  V30 54 1 26 51
M  V30 55 1 26 52
M  V30 END BOND
M  V30 END CTAB
M  END
>  <Dataset>  (207) 
OralDrugs

>  <Ligand_Instance>  (207) 
nan

>  <PDB_ID>  (207) 
nan

>  <Standardized_SMILES>  (207) 
C[N+]12CCC(CC1)C(OC(=O)C(O)(c1ccccc1)c1ccccc1)C2

>  <Name>  (207) 
Clidinium

>  <Pocket>  (207) 
nan

>  <ATP_Site>  (207) 
nan

>  <Peripheral>  (207) 
nan

>  <Num_H_Atoms_ProtBoundConf>  (207) 
nan

>  <Num_Resolved_Atoms>  (207) 
nan

>  <Num_Not_Resolved_Atoms>  (207) 
nan

$$$$
CHEMBL1200588
     RDKit          3D

  0  0  0  0  0  0  0  0  0  0999 V3000
M  V30 BEGIN CTAB
M  V30 COUNTS 60 61 0 0 0
M  V30 BEGIN ATOM
M  V30 1 C -0.107071 -3.929236 4.847661 0
M  V30 2 C 1.044906 -4.768666 4.396983 0
M  V30 3 C 2.100116 -4.128480 3.595901 0
M  V30 4 C 1.783803 -3.546833 2.279391 0 CFG=2
M  V30 5 C 0.805850 -2.445571 2.208039 0
M  V30 6 C -0.262358 -2.979314 1.240866 0 CFG=1
M  V30 7 C -1.002304 -1.834192 0.737297 0
M  V30 8 O -1.641052 -1.289010 1.706610 0
M  V30 9 N -1.142165 -1.242024 -0.548238 0
M  V30 10 C -1.956923 -0.086979 -0.767256 0 CFG=1
M  V30 11 C -1.154172 1.171104 -1.111008 0 CFG=1
M  V30 12 O -0.344921 1.369505 -0.033907 0
M  V30 13 C 0.822979 2.026969 -0.199226 0 CFG=2
M  V30 14 S 1.330869 2.981285 1.246434 0
M  V30 15 C 0.236415 4.354389 1.610467 0
M  V30 16 C 0.825325 2.908729 -1.453411 0 CFG=2
M  V30 17 O -0.324155 3.669457 -1.565461 0
M  V30 18 C 0.775030 1.868928 -2.572750 0 CFG=1
M  V30 19 O 1.824987 0.981058 -2.354487 0
M  V30 20 C -0.564094 1.184367 -2.454003 0 CFG=1
M  V30 21 O -0.356135 -0.100862 -2.994061 0
M  V30 22 C -3.097824 -0.349186 -1.683895 0 CFG=2
M  V30 23 C -3.971027 0.854076 -1.929078 0
M  V30 24 Cl -4.122682 -1.584918 -0.905564 0
M  V30 25 N 0.536456 -3.722980 0.333480 0
M  V30 26 C 1.490751 -3.011451 -0.439331 0
M  V30 27 C 1.274412 -4.576787 1.280027 0
M  V30 28 H 0.196264 -2.939148 5.265978 0
M  V30 29 H -0.645564 -4.415371 5.718316 0
M  V30 30 H -0.904837 -3.798503 4.097226 0
M  V30 31 H 0.614150 -5.688697 3.928123 0
M  V30 32 H 1.511927 -5.176595 5.350559 0
M  V30 33 H 2.974158 -4.819707 3.485480 0
M  V30 34 H 2.532993 -3.284951 4.217785 0
M  V30 35 H 2.786220 -3.228101 1.837744 0
M  V30 36 H 0.339820 -2.084468 3.111186 0
M  V30 37 H 1.279021 -1.544226 1.700308 0
M  V30 38 H -0.961646 -3.674216 1.726275 0
M  V30 39 H -0.585894 -1.762242 -1.257123 0
M  V30 40 H -2.435622 0.208307 0.215608 0
M  V30 41 H -1.921430 1.993699 -1.061447 0
M  V30 42 H 1.635347 1.281899 -0.379311 0
M  V30 43 H 0.852614 5.162317 2.067518 0
M  V30 44 H -0.201357 4.814879 0.701027 0
M  V30 45 H -0.542449 4.128050 2.361301 0
M  V30 46 H 1.714243 3.544014 -1.491701 0
M  V30 47 H -0.108195 4.632010 -1.718644 0
M  V30 48 H 0.916883 2.315876 -3.554619 0
M  V30 49 H 1.535216 0.041971 -2.324127 0
M  V30 50 H -1.221616 1.713572 -3.195107 0
M  V30 51 H -0.722900 -0.196183 -3.902179 0
M  V30 52 H -2.814793 -0.788415 -2.657626 0
M  V30 53 H -4.975289 0.458653 -2.191367 0
M  V30 54 H -3.667913 1.459950 -2.805816 0
M  V30 55 H -4.121258 1.453551 -1.011953 0
M  V30 56 H 2.532455 -3.424472 -0.289558 0
M  V30 57 H 1.583474 -1.941540 -0.267848 0
M  V30 58 H 1.302093 -3.211281 -1.529277 0
M  V30 59 H 2.102850 -5.114418 0.820035 0
M  V30 60 H 0.572689 -5.234557 1.826627 0
M  V30 END ATOM
M  V30 BEGIN BOND
M  V30 1 1 1 2
M  V30 2 1 2 3
M  V30 3 1 3 4
M  V30 4 1 4 5
M  V30 5 1 5 6
M  V30 6 1 6 7
M  V30 7 2 7 8
M  V30 8 1 7 9
M  V30 9 1 9 10
M  V30 10 1 10 11
M  V30 11 1 11 12
M  V30 12 1 12 13
M  V30 13 1 13 14
M  V30 14 1 14 15
M  V30 15 1 13 16
M  V30 16 1 16 17
M  V30 17 1 16 18
M  V30 18 1 18 19
M  V30 19 1 18 20
M  V30 20 1 20 21
M  V30 21 1 10 22
M  V30 22 1 22 23
M  V30 23 1 22 24
M  V30 24 1 6 25
M  V30 25 1 25 26
M  V30 26 1 25 27
M  V30 27 1 27 4
M  V30 28 1 20 11
M  V30 29 1 1 28
M  V30 30 1 1 29
M  V30 31 1 1 30
M  V30 32 1 2 31
M  V30 33 1 2 32
M  V30 34 1 3 33
M  V30 35 1 3 34
M  V30 36 1 4 35 CFG=3
M  V30 37 1 5 36
M  V30 38 1 5 37
M  V30 39 1 6 38 CFG=1
M  V30 40 1 9 39
M  V30 41 1 10 40 CFG=1
M  V30 42 1 11 41 CFG=3
M  V30 43 1 13 42 CFG=3
M  V30 44 1 15 43
M  V30 45 1 15 44
M  V30 46 1 15 45
M  V30 47 1 16 46 CFG=3
M  V30 48 1 17 47
M  V30 49 1 18 48 CFG=3
M  V30 50 1 19 49
M  V30 51 1 20 50 CFG=3
M  V30 52 1 21 51
M  V30 53 1 22 52 CFG=3
M  V30 54 1 23 53
M  V30 55 1 23 54
M  V30 56 1 23 55
M  V30 57 1 26 56
M  V30 58 1 26 57
M  V30 59 1 26 58
M  V30 60 1 27 59
M  V30 61 1 27 60
M  V30 END BOND
M  V30 END CTAB
M  END
>  <Dataset>  (208) 
OralDrugs

>  <Ligand_Instance>  (208) 
nan

>  <PDB_ID>  (208) 
nan

>  <Standardized_SMILES>  (208) 
CCC[C@@H]1C[C@@H](C(=O)N[C@@H]([C@H]2O[C@H](SC)[C@H](O)[C@@H](O)[C@H]2O)[C@H](C)Cl)N(C)C1

>  <Name>  (208) 
Clindamycin Hydrochloride

>  <Pocket>  (208) 
nan

>  <ATP_Site>  (208) 
nan

>  <Peripheral>  (208) 
nan

>  <Num_H_Atoms_ProtBoundConf>  (208) 
nan

>  <Num_Resolved_Atoms>  (208) 
nan

>  <Num_Not_Resolved_Atoms>  (208) 
nan

$$$$
CHEMBL70418
     RDKit          3D

  0  0  0  0  0  0  0  0  0  0999 V3000
M  V30 BEGIN CTAB
M  V30 COUNTS 34 36 0 0 0
M  V30 BEGIN ATOM
M  V30 1 C -1.777501 -3.304855 2.817630 0
M  V30 2 N -1.018657 -2.749251 1.696585 0
M  V30 3 C 0.023584 -3.552186 1.130488 0
M  V30 4 O 0.188041 -4.672866 1.701028 0
M  V30 5 C 0.912102 -3.218673 -0.027938 0
M  V30 6 C 1.385592 -1.796739 0.032435 0
M  V30 7 O 2.650081 -1.614504 0.015391 0
M  V30 8 N 0.582939 -0.600100 0.107972 0
M  V30 9 C 1.279407 0.526169 -0.416341 0
M  V30 10 C 2.003774 1.158993 0.600467 0
M  V30 11 C 2.774500 2.293063 0.345857 0
M  V30 12 C 2.810878 2.786085 -0.941020 0
M  V30 13 C 2.093280 2.154854 -1.935794 0
M  V30 14 C 1.327613 1.031982 -1.693745 0
M  V30 15 C -0.739671 -0.491664 0.627381 0
M  V30 16 C -1.211868 0.763235 0.301035 0
M  V30 17 C -2.504806 1.057927 0.729398 0
M  V30 18 Cl -3.227736 2.613773 0.383522 0
M  V30 19 C -3.254332 0.122475 1.443264 0
M  V30 20 C -2.740869 -1.121779 1.747500 0
M  V30 21 C -1.462390 -1.435276 1.333227 0
M  V30 22 H -1.127297 -4.092336 3.298936 0
M  V30 23 H -2.690109 -3.819075 2.523673 0
M  V30 24 H -1.905892 -2.556519 3.646650 0
M  V30 25 H 1.791910 -3.862811 -0.000920 0
M  V30 26 H 0.383757 -3.410401 -0.997916 0
M  V30 27 H 2.054371 0.864725 1.653325 0
M  V30 28 H 3.347842 2.822075 1.069115 0
M  V30 29 H 3.392526 3.668109 -1.209106 0
M  V30 30 H 2.079531 2.494224 -2.974365 0
M  V30 31 H 0.735878 0.463901 -2.376044 0
M  V30 32 H -0.621483 1.477962 -0.251966 0
M  V30 33 H -4.269163 0.330260 1.789390 0
M  V30 34 H -3.267438 -1.874263 2.289130 0
M  V30 END ATOM
M  V30 BEGIN BOND
M  V30 1 1 1 2
M  V30 2 1 2 3
M  V30 3 2 3 4
M  V30 4 1 3 5
M  V30 5 1 5 6
M  V30 6 2 6 7
M  V30 7 1 6 8
M  V30 8 1 8 9
M  V30 9 2 9 10
M  V30 10 1 10 11
M  V30 11 2 11 12
M  V30 12 1 12 13
M  V30 13 2 13 14
M  V30 14 1 8 15
M  V30 15 2 15 16
M  V30 16 1 16 17
M  V30 17 1 17 18
M  V30 18 2 17 19
M  V30 19 1 19 20
M  V30 20 2 20 21
M  V30 21 1 21 2
M  V30 22 1 14 9
M  V30 23 1 21 15
M  V30 24 1 1 22
M  V30 25 1 1 23
M  V30 26 1 1 24
M  V30 27 1 5 25
M  V30 28 1 5 26
M  V30 29 1 10 27
M  V30 30 1 11 28
M  V30 31 1 12 29
M  V30 32 1 13 30
M  V30 33 1 14 31
M  V30 34 1 16 32
M  V30 35 1 19 33
M  V30 36 1 20 34
M  V30 END BOND
M  V30 END CTAB
M  END
>  <Dataset>  (209) 
OralDrugs

>  <Ligand_Instance>  (209) 
nan

>  <PDB_ID>  (209) 
nan

>  <Standardized_SMILES>  (209) 
CN1C(=O)CC(=O)N(c2ccccc2)c2cc(Cl)ccc21

>  <Name>  (209) 
Clobazam

>  <Pocket>  (209) 
nan

>  <ATP_Site>  (209) 
nan

>  <Peripheral>  (209) 
nan

>  <Num_H_Atoms_ProtBoundConf>  (209) 
nan

>  <Num_Resolved_Atoms>  (209) 
nan

>  <Num_Not_Resolved_Atoms>  (209) 
nan

$$$$
CHEMBL1292
     RDKit          3D

  0  0  0  0  0  0  0  0  0  0999 V3000
M  V30 BEGIN CTAB
M  V30 COUNTS 55 59 0 0 0
M  V30 BEGIN ATOM
M  V30 1 C 3.216384 -0.935913 2.224353 0
M  V30 2 C 2.108907 -1.721704 2.871996 0
M  V30 3 C 1.375180 -0.972869 3.940590 0
M  V30 4 N 1.259248 -2.409796 1.936834 0
M  V30 5 C 0.468111 -1.884261 1.093180 0
M  V30 6 C 0.420065 -0.510122 1.073130 0
M  V30 7 C -0.387714 0.205987 0.215914 0
M  V30 8 N -0.458755 1.553317 0.170000 0
M  V30 9 C 0.342868 2.295192 1.053982 0
M  V30 10 C 1.455502 2.936692 0.543956 0
M  V30 11 C 2.286442 3.682853 1.358042 0
M  V30 12 C 1.991961 3.783120 2.701349 0
M  V30 13 Cl 2.969188 4.702423 3.845673 0
M  V30 14 C 0.873382 3.145897 3.248582 0
M  V30 15 C 0.057860 2.401304 2.394665 0
M  V30 16 C -1.301940 2.097124 -0.729464 0
M  V30 17 C -1.366986 3.489588 -0.767863 0
M  V30 18 C -2.206761 4.128367 -1.661463 0
M  V30 19 C -3.006864 3.423636 -2.542984 0
M  V30 20 C -2.934494 2.035343 -2.496568 0
M  V30 21 C -2.100242 1.391513 -1.609057 0
M  V30 22 N -2.027770 0.028789 -1.561961 0
M  V30 23 C -1.210541 -0.581143 -0.692092 0
M  V30 24 C -1.104165 -1.950175 -0.608495 0
M  V30 25 C -0.296788 -2.655301 0.247779 0
M  V30 26 N -0.170309 -4.056206 0.328785 0
M  V30 27 C -0.724093 -5.130783 -0.388940 0
M  V30 28 C -1.064942 -6.342128 0.210841 0
M  V30 29 C -1.590249 -7.428594 -0.437044 0
M  V30 30 C -1.804767 -7.334699 -1.785422 0
M  V30 31 Cl -2.475553 -8.723028 -2.606836 0
M  V30 32 C -1.501445 -6.189269 -2.457793 0
M  V30 33 C -0.976015 -5.140487 -1.734606 0
M  V30 34 H 3.248692 0.085368 2.674564 0
M  V30 35 H 4.230997 -1.353635 2.391327 0
M  V30 36 H 3.127135 -0.887714 1.105860 0
M  V30 37 H 2.632986 -2.562046 3.419814 0
M  V30 38 H 1.502629 -1.377373 4.966072 0
M  V30 39 H 1.790706 0.074628 4.017471 0
M  V30 40 H 0.272043 -0.958308 3.783135 0
M  V30 41 H 1.026220 0.082374 1.742651 0
M  V30 42 H 1.764485 2.913679 -0.497751 0
M  V30 43 H 3.172663 4.219183 1.065285 0
M  V30 44 H 0.597665 3.191987 4.292437 0
M  V30 45 H -0.817911 1.878540 2.716337 0
M  V30 46 H -0.764778 4.085426 -0.102888 0
M  V30 47 H -2.292130 5.211746 -1.728938 0
M  V30 48 H -3.681755 3.879883 -3.262441 0
M  V30 49 H -3.534720 1.412318 -3.160023 0
M  V30 50 H -1.737041 -2.483031 -1.286873 0
M  V30 51 H 0.471677 -4.448148 1.072041 0
M  V30 52 H -0.910062 -6.464725 1.293993 0
M  V30 53 H -1.829956 -8.336903 0.099014 0
M  V30 54 H -1.686127 -6.156913 -3.521281 0
M  V30 55 H -0.753043 -4.281942 -2.351621 0
M  V30 END ATOM
M  V30 BEGIN BOND
M  V30 1 1 1 2
M  V30 2 1 2 3
M  V30 3 1 2 4
M  V30 4 2 4 5
M  V30 5 1 5 6
M  V30 6 2 6 7
M  V30 7 1 7 8
M  V30 8 1 8 9
M  V30 9 2 9 10
M  V30 10 1 10 11
M  V30 11 2 11 12
M  V30 12 1 12 13
M  V30 13 1 12 14
M  V30 14 2 14 15
M  V30 15 1 8 16
M  V30 16 2 16 17
M  V30 17 1 17 18
M  V30 18 2 18 19
M  V30 19 1 19 20
M  V30 20 2 20 21
M  V30 21 1 21 22
M  V30 22 2 22 23
M  V30 23 1 23 24
M  V30 24 2 24 25
M  V30 25 1 25 26
M  V30 26 1 26 27
M  V30 27 2 27 28
M  V30 28 1 28 29
M  V30 29 2 29 30
M  V30 30 1 30 31
M  V30 31 1 30 32
M  V30 32 2 32 33
M  V30 33 1 25 5
M  V30 34 1 33 27
M  V30 35 1 23 7
M  V30 36 1 15 9
M  V30 37 1 21 16
M  V30 38 1 1 34
M  V30 39 1 1 35
M  V30 40 1 1 36
M  V30 41 1 2 37
M  V30 42 1 3 38
M  V30 43 1 3 39
M  V30 44 1 3 40
M  V30 45 1 6 41
M  V30 46 1 10 42
M  V30 47 1 11 43
M  V30 48 1 14 44
M  V30 49 1 15 45
M  V30 50 1 17 46
M  V30 51 1 18 47
M  V30 52 1 19 48
M  V30 53 1 20 49
M  V30 54 1 24 50
M  V30 55 1 26 51
M  V30 56 1 28 52
M  V30 57 1 29 53
M  V30 58 1 32 54
M  V30 59 1 33 55
M  V30 END BOND
M  V30 END CTAB
M  END
>  <Dataset>  (210) 
OralDrugs

>  <Ligand_Instance>  (210) 
nan

>  <PDB_ID>  (210) 
nan

>  <Standardized_SMILES>  (210) 
CC(C)/N=c1\cc2n(-c3ccc(Cl)cc3)c3ccccc3nc-2cc1Nc1ccc(Cl)cc1

>  <Name>  (210) 
Clofazimine

>  <Pocket>  (210) 
nan

>  <ATP_Site>  (210) 
nan

>  <Peripheral>  (210) 
nan

>  <Num_H_Atoms_ProtBoundConf>  (210) 
nan

>  <Num_Resolved_Atoms>  (210) 
nan

>  <Num_Not_Resolved_Atoms>  (210) 
nan

$$$$
CHEMBL2355051
     RDKit          3D

  0  0  0  0  0  0  0  0  0  0999 V3000
M  V30 BEGIN CTAB
M  V30 COUNTS 57 59 0 0 0
M  V30 BEGIN ATOM
M  V30 1 C -1.681252 -5.160314 1.005920 0
M  V30 2 C -3.097720 -5.356799 1.481362 0
M  V30 3 N -3.924941 -4.235710 1.448989 0
M  V30 4 C -5.282132 -4.399253 1.887505 0
M  V30 5 C -5.256148 -4.670905 3.391194 0
M  V30 6 C -3.584734 -3.037107 0.833612 0
M  V30 7 C -3.474723 -3.017623 -0.645653 0
M  V30 8 O -3.137585 -1.813229 -1.249916 0
M  V30 9 C -2.024020 -1.034709 -1.140329 0
M  V30 10 C -2.194857 0.091929 -1.965334 0
M  V30 11 C -1.210141 1.086208 -2.070003 0
M  V30 12 C -0.036453 0.960847 -1.344698 0
M  V30 13 C 1.053933 1.955427 -1.439310 0
M  V30 14 C 1.376277 2.196974 -2.721894 0
M  V30 15 Cl 0.610276 1.440203 -4.104009 0
M  V30 16 C 2.423929 3.068134 -3.264938 0
M  V30 17 C 3.682056 3.040973 -2.655392 0
M  V30 18 C 4.726614 3.816316 -3.065408 0
M  V30 19 C 4.599618 4.694009 -4.132281 0
M  V30 20 C 3.355460 4.704965 -4.717115 0
M  V30 21 C 2.278232 3.931868 -4.324207 0
M  V30 22 C 1.776101 2.731607 -0.445654 0
M  V30 23 C 1.851446 4.082653 -0.746593 0
M  V30 24 C 2.501778 5.013169 0.057735 0
M  V30 25 C 3.088085 4.525896 1.204116 0
M  V30 26 C 3.065174 3.201640 1.584518 0
M  V30 27 C 2.398890 2.363932 0.723609 0
M  V30 28 C 0.132111 -0.140935 -0.536676 0
M  V30 29 C -0.840833 -1.111100 -0.441214 0
M  V30 30 H -0.964741 -5.678272 1.713449 0
M  V30 31 H -1.503365 -5.587757 -0.002578 0
M  V30 32 H -1.423226 -4.093350 1.101611 0
M  V30 33 H -3.009342 -5.657642 2.575150 0
M  V30 34 H -3.548246 -6.290019 1.039244 0
M  V30 35 H -5.814125 -3.447864 1.764459 0
M  V30 36 H -5.729347 -5.260775 1.386183 0
M  V30 37 H -4.555999 -4.004478 3.920049 0
M  V30 38 H -6.264567 -4.556291 3.813913 0
M  V30 39 H -4.936834 -5.706447 3.612708 0
M  V30 40 H -4.421347 -2.294591 1.078759 0
M  V30 41 H -2.711868 -2.581154 1.328594 0
M  V30 42 H -4.385130 -3.390202 -1.164540 0
M  V30 43 H -2.680617 -3.763735 -0.960330 0
M  V30 44 H -3.055009 0.325828 -2.588329 0
M  V30 45 H -1.359548 1.970244 -2.705851 0
M  V30 46 H 3.927631 2.394030 -1.806195 0
M  V30 47 H 5.710415 3.789693 -2.579473 0
M  V30 48 H 5.405679 5.307590 -4.466762 0
M  V30 49 H 3.226214 5.384586 -5.560305 0
M  V30 50 H 1.314899 3.966502 -4.808122 0
M  V30 51 H 1.421513 4.584521 -1.631030 0
M  V30 52 H 2.580513 6.061491 -0.140556 0
M  V30 53 H 3.616436 5.220569 1.876525 0
M  V30 54 H 3.497938 2.770153 2.457746 0
M  V30 55 H 2.336987 1.310924 0.945480 0
M  V30 56 H 0.976136 -0.373098 0.072205 0
M  V30 57 H -0.785770 -1.998555 0.153621 0
M  V30 END ATOM
M  V30 BEGIN BOND
M  V30 1 1 1 2
M  V30 2 1 2 3
M  V30 3 1 3 4
M  V30 4 1 4 5
M  V30 5 1 3 6
M  V30 6 1 6 7
M  V30 7 1 7 8
M  V30 8 1 8 9
M  V30 9 2 9 10
M  V30 10 1 10 11
M  V30 11 2 11 12
M  V30 12 1 12 13
M  V30 13 2 13 14 CFG=2
M  V30 14 1 14 15
M  V30 15 1 14 16
M  V30 16 2 16 17
M  V30 17 1 17 18
M  V30 18 2 18 19
M  V30 19 1 19 20
M  V30 20 2 20 21
M  V30 21 1 13 22
M  V30 22 2 22 23
M  V30 23 1 23 24
M  V30 24 2 24 25
M  V30 25 1 25 26
M  V30 26 2 26 27
M  V30 27 1 12 28
M  V30 28 2 28 29
M  V30 29 1 29 9
M  V30 30 1 21 16
M  V30 31 1 27 22
M  V30 32 1 1 30
M  V30 33 1 1 31
M  V30 34 1 1 32
M  V30 35 1 2 33
M  V30 36 1 2 34
M  V30 37 1 4 35
M  V30 38 1 4 36
M  V30 39 1 5 37
M  V30 40 1 5 38
M  V30 41 1 5 39
M  V30 42 1 6 40
M  V30 43 1 6 41
M  V30 44 1 7 42
M  V30 45 1 7 43
M  V30 46 1 10 44
M  V30 47 1 11 45
M  V30 48 1 17 46
M  V30 49 1 18 47
M  V30 50 1 19 48
M  V30 51 1 20 49
M  V30 52 1 21 50
M  V30 53 1 23 51
M  V30 54 1 24 52
M  V30 55 1 25 53
M  V30 56 1 26 54
M  V30 57 1 27 55
M  V30 58 1 28 56
M  V30 59 1 29 57
M  V30 END BOND
M  V30 END CTAB
M  END
>  <Dataset>  (211) 
OralDrugs

>  <Ligand_Instance>  (211) 
nan

>  <PDB_ID>  (211) 
nan

>  <Standardized_SMILES>  (211) 
CCN(CC)CCOc1ccc(C(=C(Cl)c2ccccc2)c2ccccc2)cc1

>  <Name>  (211) 
Clomiphene

>  <Pocket>  (211) 
nan

>  <ATP_Site>  (211) 
nan

>  <Peripheral>  (211) 
nan

>  <Num_H_Atoms_ProtBoundConf>  (211) 
nan

>  <Num_Resolved_Atoms>  (211) 
nan

>  <Num_Not_Resolved_Atoms>  (211) 
nan

$$$$
CHEMBL415
     RDKit          3D

  0  0  0  0  0  0  0  0  0  0999 V3000
M  V30 BEGIN CTAB
M  V30 COUNTS 45 47 0 0 0
M  V30 BEGIN ATOM
M  V30 1 C -1.287257 -3.120183 1.130847 0
M  V30 2 N -0.338567 -3.403977 0.177179 0
M  V30 3 C -0.237134 -4.773881 -0.255510 0
M  V30 4 C 0.615109 -2.596344 -0.395728 0
M  V30 5 C 0.162461 -1.536824 -1.353856 0
M  V30 6 C -0.687209 -0.462823 -0.752250 0
M  V30 7 N -0.069564 0.335010 0.267164 0
M  V30 8 C 1.158801 1.057809 -0.029703 0
M  V30 9 C 1.213244 1.294905 -1.389205 0
M  V30 10 C 2.328610 1.968691 -1.833295 0
M  V30 11 C 3.338066 2.383279 -0.951118 0
M  V30 12 C 3.207370 2.107004 0.398100 0
M  V30 13 C 2.101310 1.427866 0.913204 0
M  V30 14 C 2.274635 1.330571 2.363265 0
M  V30 15 C 1.399339 0.400223 3.111171 0
M  V30 16 C -0.039448 0.425674 2.766190 0
M  V30 17 C -0.898559 0.470526 3.871279 0
M  V30 18 C -2.272792 0.481233 3.737246 0
M  V30 19 C -2.880793 0.448153 2.497593 0
M  V30 20 Cl -4.604763 0.457817 2.272442 0
M  V30 21 C -2.118696 0.403748 1.369445 0
M  V30 22 C -0.726738 0.394743 1.560729 0
M  V30 23 H -1.445639 -4.058333 1.777616 0
M  V30 24 H -1.050484 -2.324558 1.879863 0
M  V30 25 H -2.349422 -2.945833 0.778116 0
M  V30 26 H -1.283399 -5.151784 -0.423835 0
M  V30 27 H 0.275104 -4.766839 -1.238346 0
M  V30 28 H 0.299237 -5.349814 0.518658 0
M  V30 29 H 1.191487 -2.033345 0.437303 0
M  V30 30 H 1.489997 -3.176526 -0.848092 0
M  V30 31 H -0.436013 -1.994607 -2.193772 0
M  V30 32 H 1.101679 -1.177215 -1.806475 0
M  V30 33 H -1.310628 0.088491 -1.473285 0
M  V30 34 H -1.424215 -1.121925 -0.252381 0
M  V30 35 H 0.396794 0.966538 -2.014098 0
M  V30 36 H 2.391343 2.163703 -2.901693 0
M  V30 37 H 4.210677 2.914470 -1.330201 0
M  V30 38 H 4.019256 2.456330 1.021353 0
M  V30 39 H 3.331046 0.952493 2.526740 0
M  V30 40 H 2.276160 2.338853 2.843946 0
M  V30 41 H 1.806062 -0.640994 2.922137 0
M  V30 42 H 1.522369 0.606054 4.196624 0
M  V30 43 H -0.455423 0.497886 4.879001 0
M  V30 44 H -2.903376 0.515142 4.625113 0
M  V30 45 H -2.461202 0.375590 0.320664 0
M  V30 END ATOM
M  V30 BEGIN BOND
M  V30 1 1 1 2
M  V30 2 1 2 3
M  V30 3 1 2 4
M  V30 4 1 4 5
M  V30 5 1 5 6
M  V30 6 1 6 7
M  V30 7 1 7 8
M  V30 8 2 8 9
M  V30 9 1 9 10
M  V30 10 2 10 11
M  V30 11 1 11 12
M  V30 12 2 12 13
M  V30 13 1 13 14
M  V30 14 1 14 15
M  V30 15 1 15 16
M  V30 16 2 16 17
M  V30 17 1 17 18
M  V30 18 2 18 19
M  V30 19 1 19 20
M  V30 20 1 19 21
M  V30 21 2 21 22
M  V30 22 1 22 7
M  V30 23 1 13 8
M  V30 24 1 22 16
M  V30 25 1 1 23
M  V30 26 1 1 24
M  V30 27 1 1 25
M  V30 28 1 3 26
M  V30 29 1 3 27
M  V30 30 1 3 28
M  V30 31 1 4 29
M  V30 32 1 4 30
M  V30 33 1 5 31
M  V30 34 1 5 32
M  V30 35 1 6 33
M  V30 36 1 6 34
M  V30 37 1 9 35
M  V30 38 1 10 36
M  V30 39 1 11 37
M  V30 40 1 12 38
M  V30 41 1 14 39
M  V30 42 1 14 40
M  V30 43 1 15 41
M  V30 44 1 15 42
M  V30 45 1 17 43
M  V30 46 1 18 44
M  V30 47 1 21 45
M  V30 END BOND
M  V30 END CTAB
M  END
>  <Dataset>  (212) 
OralDrugs

>  <Ligand_Instance>  (212) 
nan

>  <PDB_ID>  (212) 
nan

>  <Standardized_SMILES>  (212) 
CN(C)CCCN1c2ccccc2CCc2ccc(Cl)cc21

>  <Name>  (212) 
Clomipramine

>  <Pocket>  (212) 
nan

>  <ATP_Site>  (212) 
nan

>  <Peripheral>  (212) 
nan

>  <Num_H_Atoms_ProtBoundConf>  (212) 
nan

>  <Num_Resolved_Atoms>  (212) 
nan

>  <Num_Not_Resolved_Atoms>  (212) 
nan

$$$$
CHEMBL452
     RDKit          3D

  0  0  0  0  0  0  0  0  0  0999 V3000
M  V30 BEGIN CTAB
M  V30 COUNTS 32 34 0 0 0
M  V30 BEGIN ATOM
M  V30 1 O -1.562172 -3.816585 3.941082 0
M  V30 2 C -1.006285 -2.898582 3.249917 0
M  V30 3 C 0.406114 -3.074090 2.968030 0
M  V30 4 N 0.891539 -2.526854 1.752381 0
M  V30 5 C 0.613717 -1.519277 1.011112 0
M  V30 6 C 1.378585 -1.277614 -0.229135 0
M  V30 7 C 0.731317 -1.492216 -1.437569 0
M  V30 8 C 1.371782 -1.290687 -2.658862 0
M  V30 9 C 2.681695 -0.867019 -2.589409 0
M  V30 10 C 3.368691 -0.639728 -1.414724 0
M  V30 11 C 2.710857 -0.846985 -0.219328 0
M  V30 12 Cl 3.477489 -0.592284 1.324594 0
M  V30 13 C -0.448393 -0.531380 1.293397 0
M  V30 14 C -0.209925 0.659468 0.596363 0
M  V30 15 C -1.162614 1.665093 0.795970 0
M  V30 16 N -0.962225 2.877704 0.115176 0 CHG=1 VAL=4
M  V30 17 O -1.745076 3.844798 0.216083 0
M  V30 18 O -0.040963 3.379761 -0.739263 0 CHG=-1 VAL=1
M  V30 19 C -2.254871 1.535504 1.600107 0
M  V30 20 C -2.431875 0.341853 2.256417 0
M  V30 21 C -1.548103 -0.707079 2.123307 0
M  V30 22 N -1.903954 -1.855532 2.881521 0
M  V30 23 H 0.648302 -4.161080 3.008690 0
M  V30 24 H 0.990214 -2.604217 3.795403 0
M  V30 25 H -0.299006 -1.825389 -1.471956 0
M  V30 26 H 0.867173 -1.458008 -3.603778 0
M  V30 27 H 3.241693 -0.690181 -3.519750 0
M  V30 28 H 4.400043 -0.306461 -1.425429 0
M  V30 29 H 0.650591 0.726407 -0.021390 0
M  V30 30 H -2.973853 2.307270 1.745021 0
M  V30 31 H -3.273818 0.176601 2.905587 0
M  V30 32 H -2.908782 -1.877509 3.157808 0
M  V30 END ATOM
M  V30 BEGIN BOND
M  V30 1 2 1 2
M  V30 2 1 2 3
M  V30 3 1 3 4
M  V30 4 2 4 5
M  V30 5 1 5 6
M  V30 6 2 6 7
M  V30 7 1 7 8
M  V30 8 2 8 9
M  V30 9 1 9 10
M  V30 10 2 10 11
M  V30 11 1 11 12
M  V30 12 1 5 13
M  V30 13 2 13 14
M  V30 14 1 14 15
M  V30 15 1 15 16
M  V30 16 2 16 17
M  V30 17 1 16 18
M  V30 18 2 15 19
M  V30 19 1 19 20
M  V30 20 2 20 21
M  V30 21 1 21 22
M  V30 22 1 22 2
M  V30 23 1 11 6
M  V30 24 1 21 13
M  V30 25 1 3 23
M  V30 26 1 3 24
M  V30 27 1 7 25
M  V30 28 1 8 26
M  V30 29 1 9 27
M  V30 30 1 10 28
M  V30 31 1 14 29
M  V30 32 1 19 30
M  V30 33 1 20 31
M  V30 34 1 22 32
M  V30 END BOND
M  V30 END CTAB
M  END
>  <Dataset>  (213) 
OralDrugs

>  <Ligand_Instance>  (213) 
nan

>  <PDB_ID>  (213) 
nan

>  <Standardized_SMILES>  (213) 
O=C1CN=C(c2ccccc2Cl)c2cc([N+](=O)[O-])ccc2N1

>  <Name>  (213) 
Clonazepam

>  <Pocket>  (213) 
nan

>  <ATP_Site>  (213) 
nan

>  <Peripheral>  (213) 
nan

>  <Num_H_Atoms_ProtBoundConf>  (213) 
nan

>  <Num_Resolved_Atoms>  (213) 
nan

>  <Num_Not_Resolved_Atoms>  (213) 
nan

$$$$
CHEMBL134
     RDKit          3D

  0  0  0  0  0  0  0  0  0  0999 V3000
M  V30 BEGIN CTAB
M  V30 COUNTS 23 24 0 0 0
M  V30 BEGIN ATOM
M  V30 1 Cl -0.254534 -3.074600 0.839878 0
M  V30 2 C 0.829247 -2.057408 1.754517 0
M  V30 3 C 1.243865 -2.363145 3.033877 0
M  V30 4 C 2.108232 -1.461570 3.642528 0
M  V30 5 C 2.565234 -0.313068 3.065703 0
M  V30 6 C 2.138226 -0.026331 1.785743 0
M  V30 7 Cl 2.741577 1.459248 1.065259 0
M  V30 8 C 1.267868 -0.906699 1.136151 0
M  V30 9 N 0.925981 -0.464752 -0.172721 0
M  V30 10 C -0.190474 0.380938 -0.523153 0
M  V30 11 N -1.197803 0.481961 0.274623 0
M  V30 12 C -2.162542 1.385195 -0.318760 0
M  V30 13 C -1.282732 2.225693 -1.219536 0
M  V30 14 N -0.366304 1.174968 -1.689200 0
M  V30 15 H 0.892060 -3.269437 3.507566 0
M  V30 16 H 2.434434 -1.694957 4.639534 0
M  V30 17 H 3.247607 0.361920 3.595384 0
M  V30 18 H 1.556946 -0.792165 -0.963168 0
M  V30 19 H -2.719668 1.979197 0.429226 0
M  V30 20 H -2.834981 0.820658 -1.004885 0
M  V30 21 H -1.815991 2.698076 -2.057298 0
M  V30 22 H -0.710529 2.967964 -0.598414 0
M  V30 23 H 0.098927 0.965154 -2.613741 0
M  V30 END ATOM
M  V30 BEGIN BOND
M  V30 1 1 1 2
M  V30 2 2 2 3
M  V30 3 1 3 4
M  V30 4 2 4 5
M  V30 5 1 5 6
M  V30 6 1 6 7
M  V30 7 2 6 8
M  V30 8 1 8 9
M  V30 9 1 9 10
M  V30 10 2 10 11
M  V30 11 1 11 12
M  V30 12 1 12 13
M  V30 13 1 13 14
M  V30 14 1 8 2
M  V30 15 1 14 10
M  V30 16 1 3 15
M  V30 17 1 4 16
M  V30 18 1 5 17
M  V30 19 1 9 18
M  V30 20 1 12 19
M  V30 21 1 12 20
M  V30 22 1 13 21
M  V30 23 1 13 22
M  V30 24 1 14 23
M  V30 END BOND
M  V30 END CTAB
M  END
>  <Dataset>  (214) 
OralDrugs

>  <Ligand_Instance>  (214) 
nan

>  <PDB_ID>  (214) 
nan

>  <Standardized_SMILES>  (214) 
Clc1cccc(Cl)c1NC1=NCCN1

>  <Name>  (214) 
Clonidine

>  <Pocket>  (214) 
nan

>  <ATP_Site>  (214) 
nan

>  <Peripheral>  (214) 
nan

>  <Num_H_Atoms_ProtBoundConf>  (214) 
nan

>  <Num_Resolved_Atoms>  (214) 
nan

>  <Num_Not_Resolved_Atoms>  (214) 
nan

$$$$
CHEMBL2096631
     RDKit          3D

  0  0  0  0  0  0  0  0  0  0999 V3000
M  V30 BEGIN CTAB
M  V30 COUNTS 33 35 0 0 0
M  V30 BEGIN ATOM
M  V30 1 O 0.712158 -0.877893 3.278673 0
M  V30 2 C -0.209622 -1.735469 3.352434 0
M  V30 3 O -0.788145 -1.869407 4.605032 0
M  V30 4 C -0.633309 -2.533006 2.182795 0
M  V30 5 N 0.158501 -2.152924 1.055281 0
M  V30 6 C 0.178589 -1.091232 0.307437 0
M  V30 7 C 1.111899 -0.988890 -0.796773 0
M  V30 8 C 1.348325 -0.154032 -1.847785 0
M  V30 9 C 2.379220 -0.224158 -2.746472 0
M  V30 10 C 3.310813 -1.229349 -2.628004 0
M  V30 11 C 3.149686 -2.123316 -1.593647 0
M  V30 12 C 2.097309 -1.989792 -0.735503 0
M  V30 13 C -0.704311 0.063448 0.604318 0
M  V30 14 C -0.015971 1.259536 0.342846 0
M  V30 15 C -0.740138 2.412571 0.532704 0
M  V30 16 Cl 0.096022 3.903717 0.208796 0
M  V30 17 C -2.053992 2.404261 0.953985 0
M  V30 18 C -2.729728 1.230406 1.214824 0
M  V30 19 C -2.037283 0.025992 1.037116 0
M  V30 20 N -2.768360 -1.171796 1.391607 0
M  V30 21 C -2.089001 -2.307992 1.983780 0
M  V30 22 O -3.004330 -3.136165 2.328125 0
M  V30 23 H -0.217453 -1.915490 5.461446 0
M  V30 24 H -0.502103 -3.607640 2.389762 0
M  V30 25 H 0.551570 0.580304 -1.922772 0
M  V30 26 H 2.357766 0.553815 -3.494933 0
M  V30 27 H 4.079985 -1.198648 -3.380365 0
M  V30 28 H 3.906206 -2.892629 -1.545637 0
M  V30 29 H 2.116966 -2.779421 0.025411 0
M  V30 30 H 1.023549 1.220314 0.057779 0
M  V30 31 H -2.623266 3.310892 1.102144 0
M  V30 32 H -3.742882 1.086328 1.545081 0
M  V30 33 H -3.777688 -1.054407 1.165623 0
M  V30 END ATOM
M  V30 BEGIN BOND
M  V30 1 2 1 2
M  V30 2 1 2 3
M  V30 3 1 2 4
M  V30 4 1 4 5
M  V30 5 2 5 6
M  V30 6 1 6 7
M  V30 7 2 7 8
M  V30 8 1 8 9
M  V30 9 2 9 10
M  V30 10 1 10 11
M  V30 11 2 11 12
M  V30 12 1 6 13
M  V30 13 2 13 14
M  V30 14 1 14 15
M  V30 15 1 15 16
M  V30 16 2 15 17
M  V30 17 1 17 18
M  V30 18 2 18 19
M  V30 19 1 19 20
M  V30 20 1 20 21
M  V30 21 2 21 22
M  V30 22 1 21 4
M  V30 23 1 12 7
M  V30 24 1 19 13
M  V30 25 1 3 23
M  V30 26 1 4 24
M  V30 27 1 8 25
M  V30 28 1 9 26
M  V30 29 1 10 27
M  V30 30 1 11 28
M  V30 31 1 12 29
M  V30 32 1 14 30
M  V30 33 1 17 31
M  V30 34 1 18 32
M  V30 35 1 20 33
M  V30 END BOND
M  V30 END CTAB
M  END
>  <Dataset>  (215) 
OralDrugs

>  <Ligand_Instance>  (215) 
nan

>  <PDB_ID>  (215) 
nan

>  <Standardized_SMILES>  (215) 
O=C(O)C1N=C(c2ccccc2)c2cc(Cl)ccc2NC1=O

>  <Name>  (215) 
Clorazepate Dipotassium

>  <Pocket>  (215) 
nan

>  <ATP_Site>  (215) 
nan

>  <Peripheral>  (215) 
nan

>  <Num_H_Atoms_ProtBoundConf>  (215) 
nan

>  <Num_Resolved_Atoms>  (215) 
nan

>  <Num_Not_Resolved_Atoms>  (215) 
nan

$$$$
CHEMBL104
     RDKit          3D

  0  0  0  0  0  0  0  0  0  0999 V3000
M  V30 BEGIN CTAB
M  V30 COUNTS 42 45 0 0 0
M  V30 BEGIN ATOM
M  V30 1 Cl 0.294904 -3.315607 2.205380 0
M  V30 2 C 1.410178 -1.958353 2.284397 0
M  V30 3 C 2.359137 -2.175965 3.280441 0
M  V30 4 C 3.352487 -1.228219 3.545406 0
M  V30 5 C 3.390740 -0.062875 2.808990 0
M  V30 6 C 2.439629 0.123789 1.831301 0
M  V30 7 C 1.458382 -0.771238 1.541730 0
M  V30 8 C 0.371488 -0.730391 0.530405 0
M  V30 9 C 0.478824 0.557386 -0.210402 0
M  V30 10 C 1.605122 0.600446 -1.045283 0
M  V30 11 C 1.921250 1.671623 -1.829530 0
M  V30 12 C 1.131091 2.792952 -1.841869 0
M  V30 13 C 0.005626 2.761052 -1.013486 0
M  V30 14 C -0.315998 1.682370 -0.221328 0
M  V30 15 C -0.927375 -0.954829 1.174041 0
M  V30 16 C -1.971606 -1.836405 0.995294 0
M  V30 17 C -3.090929 -1.813230 1.780188 0
M  V30 18 C -3.253326 -0.903343 2.808564 0
M  V30 19 C -2.237385 -0.012743 3.015852 0
M  V30 20 C -1.086235 -0.026998 2.218299 0
M  V30 21 N 0.570716 -1.787093 -0.471707 0
M  V30 22 C -0.125696 -2.116199 -1.565947 0
M  V30 23 C 0.425234 -3.177439 -2.236771 0
M  V30 24 N 1.513214 -3.510068 -1.512497 0
M  V30 25 C 1.579943 -2.659981 -0.456449 0
M  V30 26 H 2.462295 -3.025253 3.934707 0
M  V30 27 H 4.118933 -1.330360 4.301227 0
M  V30 28 H 4.125201 0.723395 2.948533 0
M  V30 29 H 2.391848 1.005164 1.212228 0
M  V30 30 H 2.329395 -0.220860 -1.140722 0
M  V30 31 H 2.784127 1.719101 -2.476184 0
M  V30 32 H 1.316312 3.662991 -2.427365 0
M  V30 33 H -0.672794 3.587890 -0.953393 0
M  V30 34 H -1.156929 1.597539 0.425372 0
M  V30 35 H -1.752212 -2.501490 0.183049 0
M  V30 36 H -3.821942 -2.572849 1.511073 0
M  V30 37 H -4.178803 -0.980645 3.359948 0
M  V30 38 H -2.409133 0.676863 3.828475 0
M  V30 39 H -0.403083 0.749393 2.537511 0
M  V30 40 H -1.033426 -1.586159 -1.885049 0
M  V30 41 H 0.064267 -3.637568 -3.140079 0
M  V30 42 H 2.401422 -2.808342 0.197361 0
M  V30 END ATOM
M  V30 BEGIN BOND
M  V30 1 1 1 2
M  V30 2 2 2 3
M  V30 3 1 3 4
M  V30 4 2 4 5
M  V30 5 1 5 6
M  V30 6 2 6 7
M  V30 7 1 7 8
M  V30 8 1 8 9
M  V30 9 2 9 10
M  V30 10 1 10 11
M  V30 11 2 11 12
M  V30 12 1 12 13
M  V30 13 2 13 14
M  V30 14 1 8 15
M  V30 15 2 15 16
M  V30 16 1 16 17
M  V30 17 2 17 18
M  V30 18 1 18 19
M  V30 19 2 19 20
M  V30 20 1 8 21
M  V30 21 1 21 22
M  V30 22 2 22 23
M  V30 23 1 23 24
M  V30 24 2 24 25
M  V30 25 1 7 2
M  V30 26 1 14 9
M  V30 27 1 20 15
M  V30 28 1 25 21
M  V30 29 1 3 26
M  V30 30 1 4 27
M  V30 31 1 5 28
M  V30 32 1 6 29
M  V30 33 1 10 30
M  V30 34 1 11 31
M  V30 35 1 12 32
M  V30 36 1 13 33
M  V30 37 1 14 34
M  V30 38 1 16 35
M  V30 39 1 17 36
M  V30 40 1 18 37
M  V30 41 1 19 38
M  V30 42 1 20 39
M  V30 43 1 22 40
M  V30 44 1 23 41
M  V30 45 1 25 42
M  V30 END BOND
M  V30 END CTAB
M  END
>  <Dataset>  (216) 
OralDrugs

>  <Ligand_Instance>  (216) 
nan

>  <PDB_ID>  (216) 
nan

>  <Standardized_SMILES>  (216) 
Clc1ccccc1C(c1ccccc1)(c1ccccc1)n1ccnc1

>  <Name>  (216) 
Clotrimazole

>  <Pocket>  (216) 
nan

>  <ATP_Site>  (216) 
nan

>  <Peripheral>  (216) 
nan

>  <Num_H_Atoms_ProtBoundConf>  (216) 
nan

>  <Num_Resolved_Atoms>  (216) 
nan

>  <Num_Not_Resolved_Atoms>  (216) 
nan

$$$$
CHEMBL891
     RDKit          3D

  0  0  0  0  0  0  0  0  0  0999 V3000
M  V30 BEGIN CTAB
M  V30 COUNTS 47 50 0 0 0
M  V30 BEGIN ATOM
M  V30 1 C 2.424105 -2.754563 1.015873 0
M  V30 2 C 3.204023 -1.687010 0.336525 0
M  V30 3 O 4.431169 -1.728373 -0.135645 0
M  V30 4 N 4.731709 -0.565887 -0.657444 0
M  V30 5 C 3.660387 0.252424 -0.516408 0
M  V30 6 C 3.843208 1.596952 -1.050330 0
M  V30 7 C 3.636424 2.576918 -0.097825 0
M  V30 8 C 3.779580 3.920944 -0.435741 0
M  V30 9 C 4.133683 4.290723 -1.737471 0
M  V30 10 C 4.336173 3.287668 -2.671174 0
M  V30 11 C 4.192601 1.952567 -2.334500 0
M  V30 12 Cl 4.428274 0.624752 -3.450242 0
M  V30 13 C 2.652110 -0.444982 0.124590 0
M  V30 14 C 1.390326 0.217507 0.397410 0
M  V30 15 O 1.080482 1.394339 0.022733 0
M  V30 16 N 0.296653 -0.323037 1.121240 0
M  V30 17 C -0.942040 0.336064 1.382054 0 CFG=2
M  V30 18 C -1.375578 0.348867 2.804823 0
M  V30 19 O -0.926350 0.969131 3.814951 0
M  V30 20 N -2.439686 -0.566846 2.583365 0
M  V30 21 C -2.180945 -0.444021 1.161210 0 CFG=2
M  V30 22 S -1.961175 -2.233473 0.826923 0
M  V30 23 C -2.994930 -2.842922 2.219574 0
M  V30 24 C -4.060721 -3.744727 1.668886 0
M  V30 25 C -2.172732 -3.515493 3.260184 0
M  V30 26 C -3.560654 -1.507952 2.710719 0 CFG=2
M  V30 27 C -4.635703 -1.028754 1.836584 0
M  V30 28 O -5.703285 -1.719480 1.968617 0
M  V30 29 O -5.644602 -0.572877 1.010968 0
M  V30 30 H 1.527021 -2.997271 0.415519 0
M  V30 31 H 2.244521 -2.571607 2.083542 0
M  V30 32 H 3.045214 -3.701460 0.954791 0
M  V30 33 H 3.367021 2.538207 0.949805 0
M  V30 34 H 3.650086 4.787952 0.197498 0
M  V30 35 H 4.260570 5.320302 -2.056378 0
M  V30 36 H 4.611765 3.526783 -3.686901 0
M  V30 37 H 0.352410 -1.265888 1.512617 0
M  V30 38 H -0.992870 1.341935 0.895795 0
M  V30 39 H -2.993053 0.025026 0.579776 0
M  V30 40 H -3.598929 -4.769956 1.600759 0
M  V30 41 H -4.918948 -3.881317 2.354389 0
M  V30 42 H -4.337902 -3.483026 0.631987 0
M  V30 43 H -2.157895 -4.624715 3.091340 0
M  V30 44 H -2.699916 -3.378693 4.244019 0
M  V30 45 H -1.119500 -3.174205 3.303434 0
M  V30 46 H -3.868649 -1.588308 3.760290 0
M  V30 47 H -5.403364 -0.136487 0.108867 0
M  V30 END ATOM
M  V30 BEGIN BOND
M  V30 1 1 1 2
M  V30 2 1 2 3
M  V30 3 1 3 4
M  V30 4 2 4 5
M  V30 5 1 5 6
M  V30 6 2 6 7
M  V30 7 1 7 8
M  V30 8 2 8 9
M  V30 9 1 9 10
M  V30 10 2 10 11
M  V30 11 1 11 12
M  V30 12 1 5 13
M  V30 13 1 13 14
M  V30 14 2 14 15
M  V30 15 1 14 16
M  V30 16 1 16 17
M  V30 17 1 17 18
M  V30 18 2 18 19
M  V30 19 1 18 20
M  V30 20 1 20 21
M  V30 21 1 21 22
M  V30 22 1 22 23
M  V30 23 1 23 24
M  V30 24 1 23 25
M  V30 25 1 23 26
M  V30 26 1 26 27
M  V30 27 2 27 28
M  V30 28 1 27 29
M  V30 29 2 13 2
M  V30 30 1 21 17
M  V30 31 1 11 6
M  V30 32 1 26 20
M  V30 33 1 1 30
M  V30 34 1 1 31
M  V30 35 1 1 32
M  V30 36 1 7 33
M  V30 37 1 8 34
M  V30 38 1 9 35
M  V30 39 1 10 36
M  V30 40 1 16 37
M  V30 41 1 17 38 CFG=3
M  V30 42 1 21 39 CFG=3
M  V30 43 1 24 40
M  V30 44 1 24 41
M  V30 45 1 24 42
M  V30 46 1 25 43
M  V30 47 1 25 44
M  V30 48 1 25 45
M  V30 49 1 26 46 CFG=1
M  V30 50 1 29 47
M  V30 END BOND
M  V30 END CTAB
M  END
>  <Dataset>  (217) 
OralDrugs

>  <Ligand_Instance>  (217) 
nan

>  <PDB_ID>  (217) 
nan

>  <Standardized_SMILES>  (217) 
Cc1onc(-c2ccccc2Cl)c1C(=O)N[C@@H]1C(=O)N2[C@@H]1SC(C)(C)[C@@H]2C(=O)O

>  <Name>  (217) 
Cloxacillin

>  <Pocket>  (217) 
nan

>  <ATP_Site>  (217) 
nan

>  <Peripheral>  (217) 
nan

>  <Num_H_Atoms_ProtBoundConf>  (217) 
nan

>  <Num_Resolved_Atoms>  (217) 
nan

>  <Num_Not_Resolved_Atoms>  (217) 
nan

$$$$
CHEMBL42
     RDKit          3D

  0  0  0  0  0  0  0  0  0  0999 V3000
M  V30 BEGIN CTAB
M  V30 COUNTS 42 45 0 0 0
M  V30 BEGIN ATOM
M  V30 1 C 0.061054 -4.666763 -0.187002 0
M  V30 2 N 0.871856 -4.430241 0.988729 0
M  V30 3 C 0.026443 -4.052813 2.075922 0
M  V30 4 C -0.515314 -2.657957 1.860456 0
M  V30 5 N 0.575631 -1.801622 1.519292 0
M  V30 6 C 0.456453 -0.461670 1.066856 0
M  V30 7 N 0.026534 -0.466407 -0.158073 0
M  V30 8 C -0.238637 0.638598 -1.006852 0
M  V30 9 C -0.884787 0.317303 -2.183592 0
M  V30 10 C -1.239502 1.228043 -3.151155 0
M  V30 11 Cl -2.058774 0.791350 -4.634525 0
M  V30 12 C -0.937807 2.562122 -2.951967 0
M  V30 13 C -0.291529 2.943049 -1.792615 0
M  V30 14 C 0.046890 1.997177 -0.846736 0
M  V30 15 N 0.707318 2.631106 0.265626 0
M  V30 16 C 0.889116 2.010756 1.545269 0
M  V30 17 C 1.215027 2.942138 2.510919 0
M  V30 18 C 1.419009 2.480635 3.794291 0
M  V30 19 C 1.314622 1.139206 4.163119 0
M  V30 20 C 0.985545 0.203741 3.184865 0
M  V30 21 C 0.785491 0.684052 1.908205 0
M  V30 22 C 1.936882 -2.338480 1.642018 0
M  V30 23 C 1.953401 -3.537514 0.700895 0
M  V30 24 H 0.543758 -5.534979 -0.704154 0
M  V30 25 H -0.977838 -4.920583 0.045375 0
M  V30 26 H 0.069220 -3.803887 -0.875123 0
M  V30 27 H -0.866309 -4.722649 2.037591 0
M  V30 28 H 0.530998 -4.050209 3.059740 0
M  V30 29 H -1.286671 -2.600531 1.070418 0
M  V30 30 H -0.973430 -2.246598 2.788271 0
M  V30 31 H -1.132080 -0.723548 -2.362454 0
M  V30 32 H -1.176546 3.338242 -3.651420 0
M  V30 33 H -0.052347 3.977193 -1.627766 0
M  V30 34 H 1.080748 3.602428 0.144021 0
M  V30 35 H 1.302185 3.983644 2.254125 0
M  V30 36 H 1.671989 3.253919 4.511215 0
M  V30 37 H 1.491911 0.845246 5.208941 0
M  V30 38 H 0.896118 -0.837589 3.430697 0
M  V30 39 H 2.155855 -2.725043 2.648197 0
M  V30 40 H 2.702653 -1.619636 1.343052 0
M  V30 41 H 1.862831 -3.094018 -0.329942 0
M  V30 42 H 2.916927 -4.069755 0.726985 0
M  V30 END ATOM
M  V30 BEGIN BOND
M  V30 1 1 1 2
M  V30 2 1 2 3
M  V30 3 1 3 4
M  V30 4 1 4 5
M  V30 5 1 5 6
M  V30 6 2 6 7
M  V30 7 1 7 8
M  V30 8 2 8 9
M  V30 9 1 9 10
M  V30 10 1 10 11
M  V30 11 2 10 12
M  V30 12 1 12 13
M  V30 13 2 13 14
M  V30 14 1 14 15
M  V30 15 1 15 16
M  V30 16 2 16 17
M  V30 17 1 17 18
M  V30 18 2 18 19
M  V30 19 1 19 20
M  V30 20 2 20 21
M  V30 21 1 5 22
M  V30 22 1 22 23
M  V30 23 1 23 2
M  V30 24 1 21 6
M  V30 25 1 14 8
M  V30 26 1 21 16
M  V30 27 1 1 24
M  V30 28 1 1 25
M  V30 29 1 1 26
M  V30 30 1 3 27
M  V30 31 1 3 28
M  V30 32 1 4 29
M  V30 33 1 4 30
M  V30 34 1 9 31
M  V30 35 1 12 32
M  V30 36 1 13 33
M  V30 37 1 15 34
M  V30 38 1 17 35
M  V30 39 1 18 36
M  V30 40 1 19 37
M  V30 41 1 20 38
M  V30 42 1 22 39
M  V30 43 1 22 40
M  V30 44 1 23 41
M  V30 45 1 23 42
M  V30 END BOND
M  V30 END CTAB
M  END
>  <Dataset>  (218) 
OralDrugs

>  <Ligand_Instance>  (218) 
nan

>  <PDB_ID>  (218) 
nan

>  <Standardized_SMILES>  (218) 
CN1CCN(C2=Nc3cc(Cl)ccc3Nc3ccccc32)CC1

>  <Name>  (218) 
Clozapine

>  <Pocket>  (218) 
nan

>  <ATP_Site>  (218) 
nan

>  <Peripheral>  (218) 
nan

>  <Num_H_Atoms_ProtBoundConf>  (218) 
nan

>  <Num_Resolved_Atoms>  (218) 
nan

>  <Num_Not_Resolved_Atoms>  (218) 
nan

$$$$
CHEMBL2095208
     RDKit          3D

  0  0  0  0  0  0  0  0  0  0999 V3000
M  V30 BEGIN CTAB
M  V30 COUNTS 107 111 0 0 0
M  V30 BEGIN ATOM
M  V30 1 C 5.042013 -2.461433 -0.235828 0
M  V30 2 C 6.205465 -1.921941 0.585905 0
M  V30 3 C 7.057719 -1.035157 -0.250025 0
M  V30 4 C 5.634807 -1.134547 1.709449 0
M  V30 5 N 5.027313 -0.130471 1.881899 0
M  V30 6 C 4.596764 0.341871 3.030516 0
M  V30 7 C 3.812748 1.601066 3.341801 0
M  V30 8 N 2.382123 1.305970 3.198592 0
M  V30 9 C 1.719682 0.685810 4.329944 0
M  V30 10 C 1.735095 1.664000 1.999404 0
M  V30 11 O 2.366860 2.343123 1.128746 0
M  V30 12 N 0.461029 1.407792 1.541511 0
M  V30 13 C -0.294169 1.747637 0.362668 0 CFG=1
M  V30 14 C 0.464262 1.696352 -0.919518 0
M  V30 15 C 1.095483 0.453015 -1.370184 0
M  V30 16 N 1.777060 0.691012 -2.630699 0
M  V30 17 C 2.912577 1.512708 -2.618612 0
M  V30 18 C 4.218313 0.839057 -2.995581 0
M  V30 19 O 3.969302 0.054012 -4.127507 0
M  V30 20 C 3.133707 -0.981435 -3.687579 0
M  V30 21 C 1.739713 -0.373127 -3.559962 0
M  V30 22 C -1.619306 1.204402 0.453956 0
M  V30 23 O -1.797250 0.678572 1.604233 0
M  V30 24 N -2.714834 1.117729 -0.371975 0
M  V30 25 C -4.048583 0.691518 -0.546900 0 CFG=2
M  V30 26 C -4.424862 -0.072735 -1.726182 0
M  V30 27 C -3.928359 -1.427973 -2.038336 0
M  V30 28 C -2.518301 -1.711519 -2.029816 0 CFG=2
M  V30 29 C -2.295268 -3.152184 -2.546030 0
M  V30 30 C -2.784814 -3.359973 -3.903366 0
M  V30 31 C -4.057520 -3.789268 -4.198006 0
M  V30 32 C -4.560289 -4.005672 -5.469428 0
M  V30 33 C -3.700928 -3.767882 -6.528792 0
M  V30 34 C -2.384240 -3.328873 -6.356078 0
M  V30 35 C -1.998876 -3.148112 -5.028968 0
M  V30 36 N -1.897136 -1.878737 -0.706304 0
M  V30 37 C -2.597633 -2.223067 0.496925 0
M  V30 38 O -3.804829 -2.431273 0.641396 0
M  V30 39 O -2.019521 -2.386576 1.717483 0
M  V30 40 C -2.768593 -2.741352 2.849752 0
M  V30 41 C -1.958753 -2.865727 4.049548 0
M  V30 42 C -1.292429 -4.032031 4.560267 0
M  V30 43 N -0.579772 -4.052229 5.650050 0
M  V30 44 C -0.433402 -2.987447 6.348121 0
M  V30 45 S -1.437459 -1.653296 5.392614 0
M  V30 46 C -4.941626 1.959639 -0.550868 0
M  V30 47 C -4.793799 2.664978 0.758481 0
M  V30 48 C -3.877115 3.679061 1.068482 0
M  V30 49 C -3.912684 4.189870 2.367231 0
M  V30 50 C -4.782689 3.753880 3.330477 0
M  V30 51 C -5.688632 2.744804 3.007925 0
M  V30 52 C -5.658578 2.241768 1.737498 0
M  V30 53 C 4.893692 -0.437642 4.208061 0
M  V30 54 S 5.831996 -1.865369 3.421749 0
M  V30 55 H 5.321182 -3.056150 -1.091628 0
M  V30 56 H 4.408758 -1.621921 -0.582821 0
M  V30 57 H 4.357466 -3.060183 0.424932 0
M  V30 58 H 6.805868 -2.770473 0.952398 0
M  V30 59 H 7.863277 -0.544013 0.293464 0
M  V30 60 H 7.553297 -1.681292 -1.036478 0
M  V30 61 H 6.497176 -0.258758 -0.829021 0
M  V30 62 H 4.051864 2.428635 2.680172 0
M  V30 63 H 3.978474 1.958186 4.373590 0
M  V30 64 H 1.396575 1.483991 5.068998 0
M  V30 65 H 2.407021 -0.029978 4.830959 0
M  V30 66 H 0.799375 0.146748 4.086728 0
M  V30 67 H -0.020312 0.810511 2.302729 0
M  V30 68 H -0.391456 2.907709 0.487139 0
M  V30 69 H -0.200886 2.054224 -1.765156 0
M  V30 70 H 1.233143 2.531265 -0.880133 0
M  V30 71 H 0.314011 -0.313179 -1.646830 0
M  V30 72 H 1.718150 -0.062475 -0.619517 0
M  V30 73 H 2.770792 2.303294 -3.420932 0
M  V30 74 H 3.011934 2.095655 -1.676396 0
M  V30 75 H 4.973494 1.615384 -3.211513 0
M  V30 76 H 4.489929 0.168286 -2.178954 0
M  V30 77 H 3.127270 -1.862037 -4.317821 0
M  V30 78 H 3.453969 -1.178053 -2.650871 0
M  V30 79 H 1.420147 0.077283 -4.548788 0
M  V30 80 H 0.973747 -1.103465 -3.309565 0
M  V30 81 H -2.475071 1.573054 -1.305020 0
M  V30 82 H -4.373485 0.212466 0.427327 0
M  V30 83 H -4.298114 0.589906 -2.645060 0
M  V30 84 H -5.575060 -0.172778 -1.704355 0
M  V30 85 H -4.593800 -2.176532 -1.526431 0
M  V30 86 H -4.298108 -1.591150 -3.112722 0
M  V30 87 H -1.929374 -1.031582 -2.584247 0
M  V30 88 H -2.676580 -3.893584 -1.809580 0
M  V30 89 H -1.183621 -3.254396 -2.565065 0
M  V30 90 H -4.730693 -3.973931 -3.344447 0
M  V30 91 H -5.562037 -4.341484 -5.681150 0
M  V30 92 H -3.988610 -3.909803 -7.580795 0
M  V30 93 H -1.679992 -3.130686 -7.135054 0
M  V30 94 H -0.965175 -2.804260 -4.858954 0
M  V30 95 H -0.890344 -1.782362 -0.465369 0
M  V30 96 H -3.663716 -2.076824 3.028780 0
M  V30 97 H -3.215667 -3.743413 2.660007 0
M  V30 98 H -1.405390 -4.958027 3.978643 0
M  V30 99 H 0.155105 -2.992352 7.246711 0
M  V30 100 H -5.989959 1.717386 -0.718723 0
M  V30 101 H -4.612369 2.679078 -1.306794 0
M  V30 102 H -3.232010 3.963450 0.268069 0
M  V30 103 H -3.135895 4.969334 2.433633 0
M  V30 104 H -4.699156 4.244189 4.308411 0
M  V30 105 H -6.345284 2.448937 3.822688 0
M  V30 106 H -6.402494 1.450459 1.552239 0
M  V30 107 H 4.734213 -0.396470 5.227147 0
M  V30 END ATOM
M  V30 BEGIN BOND
M  V30 1 1 1 2
M  V30 2 1 2 3
M  V30 3 1 2 4
M  V30 4 2 4 5
M  V30 5 1 5 6
M  V30 6 1 6 7
M  V30 7 1 7 8
M  V30 8 1 8 9
M  V30 9 1 8 10
M  V30 10 2 10 11
M  V30 11 1 10 12
M  V30 12 1 12 13
M  V30 13 1 13 14
M  V30 14 1 14 15
M  V30 15 1 15 16
M  V30 16 1 16 17
M  V30 17 1 17 18
M  V30 18 1 18 19
M  V30 19 1 19 20
M  V30 20 1 20 21
M  V30 21 1 13 22
M  V30 22 2 22 23
M  V30 23 1 22 24
M  V30 24 1 24 25
M  V30 25 1 25 26
M  V30 26 1 26 27
M  V30 27 1 27 28
M  V30 28 1 28 29
M  V30 29 1 29 30
M  V30 30 2 30 31
M  V30 31 1 31 32
M  V30 32 2 32 33
M  V30 33 1 33 34
M  V30 34 2 34 35
M  V30 35 1 28 36
M  V30 36 1 36 37
M  V30 37 2 37 38
M  V30 38 1 37 39
M  V30 39 1 39 40
M  V30 40 1 40 41
M  V30 41 2 41 42
M  V30 42 1 42 43
M  V30 43 2 43 44
M  V30 44 1 44 45
M  V30 45 1 25 46
M  V30 46 1 46 47
M  V30 47 2 47 48
M  V30 48 1 48 49
M  V30 49 2 49 50
M  V30 50 1 50 51
M  V30 51 2 51 52
M  V30 52 2 6 53
M  V30 53 1 53 54
M  V30 54 1 54 4
M  V30 55 1 21 16
M  V30 56 1 35 30
M  V30 57 1 45 41
M  V30 58 1 52 47
M  V30 59 1 1 55
M  V30 60 1 1 56
M  V30 61 1 1 57
M  V30 62 1 2 58
M  V30 63 1 3 59
M  V30 64 1 3 60
M  V30 65 1 3 61
M  V30 66 1 7 62
M  V30 67 1 7 63
M  V30 68 1 9 64
M  V30 69 1 9 65
M  V30 70 1 9 66
M  V30 71 1 12 67
M  V30 72 1 13 68 CFG=1
M  V30 73 1 14 69
M  V30 74 1 14 70
M  V30 75 1 15 71
M  V30 76 1 15 72
M  V30 77 1 17 73
M  V30 78 1 17 74
M  V30 79 1 18 75
M  V30 80 1 18 76
M  V30 81 1 20 77
M  V30 82 1 20 78
M  V30 83 1 21 79
M  V30 84 1 21 80
M  V30 85 1 24 81
M  V30 86 1 25 82 CFG=1
M  V30 87 1 26 83
M  V30 88 1 26 84
M  V30 89 1 27 85
M  V30 90 1 27 86
M  V30 91 1 28 87 CFG=3
M  V30 92 1 29 88
M  V30 93 1 29 89
M  V30 94 1 31 90
M  V30 95 1 32 91
M  V30 96 1 33 92
M  V30 97 1 34 93
M  V30 98 1 35 94
M  V30 99 1 36 95
M  V30 100 1 40 96
M  V30 101 1 40 97
M  V30 102 1 42 98
M  V30 103 1 44 99
M  V30 104 1 46 100
M  V30 105 1 46 101
M  V30 106 1 48 102
M  V30 107 1 49 103
M  V30 108 1 50 104
M  V30 109 1 51 105
M  V30 110 1 52 106
M  V30 111 1 53 107
M  V30 END BOND
M  V30 END CTAB
M  END
>  <Dataset>  (219) 
OralDrugs

>  <Ligand_Instance>  (219) 
nan

>  <PDB_ID>  (219) 
nan

>  <Standardized_SMILES>  (219) 
CC(C)c1nc(CN(C)C(=O)N[C@@H](CCN2CCOCC2)C(=O)N[C@H](CC[C@H](Cc2ccccc2)NC(=O)OCc2cncs2)Cc2ccccc2)cs1

>  <Name>  (219) 
Cobicistat

>  <Pocket>  (219) 
nan

>  <ATP_Site>  (219) 
nan

>  <Peripheral>  (219) 
nan

>  <Num_H_Atoms_ProtBoundConf>  (219) 
nan

>  <Num_Resolved_Atoms>  (219) 
nan

>  <Num_Not_Resolved_Atoms>  (219) 
nan

$$$$
CHEMBL2146883
     RDKit          3D

  0  0  0  0  0  0  0  0  0  0999 V3000
M  V30 BEGIN CTAB
M  V30 COUNTS 51 54 0 0 0
M  V30 BEGIN ATOM
M  V30 1 O -0.051342 0.710428 1.098435 0
M  V30 2 C 0.262916 0.385240 -0.063276 0
M  V30 3 C 0.913056 0.762288 -1.302171 0
M  V30 4 C 0.888933 -0.167399 -2.308661 0
M  V30 5 C 1.511906 0.224968 -3.469183 0
M  V30 6 C 2.110759 1.457348 -3.602153 0
M  V30 7 F 2.694558 1.736150 -4.792067 0
M  V30 8 C 2.089375 2.332232 -2.541352 0
M  V30 9 F 2.702389 3.511003 -2.794408 0
M  V30 10 C 1.479711 2.010935 -1.332469 0
M  V30 11 N 1.494098 2.965059 -0.286544 0
M  V30 12 C 2.280316 3.253867 0.859866 0
M  V30 13 C 1.671239 3.265248 2.114937 0
M  V30 14 C 2.346729 3.524463 3.283121 0
M  V30 15 C 3.684801 3.784071 3.204086 0
M  V30 16 I 4.779770 4.190250 4.968288 0
M  V30 17 C 4.341679 3.789252 2.012529 0
M  V30 18 C 3.625980 3.525973 0.883187 0
M  V30 19 F 4.288657 3.532993 -0.283471 0
M  V30 20 N -0.417306 -0.771328 0.388278 0
M  V30 21 C -1.009270 -0.948927 1.697706 0
M  V30 22 C -0.752708 -2.431072 1.530355 0
M  V30 23 O 0.541970 -2.744488 1.900091 0
M  V30 24 C -1.828942 -3.319409 2.116220 0 CFG=2
M  V30 25 C -1.555221 -4.763684 1.929925 0
M  V30 26 C -2.254141 -5.420975 0.783504 0
M  V30 27 C -3.605334 -4.878325 0.478781 0
M  V30 28 C -4.042118 -4.049456 1.683393 0
M  V30 29 N -3.134190 -2.893293 1.657656 0
M  V30 30 C -0.878636 -2.109394 0.078274 0
M  V30 31 H 0.437002 -1.128662 -2.246894 0
M  V30 32 H 1.525784 -0.473865 -4.307856 0
M  V30 33 H 0.695583 3.615535 -0.431442 0
M  V30 34 H 0.602966 3.073578 2.278803 0
M  V30 35 H 1.884175 3.534972 4.255344 0
M  V30 36 H 5.409564 3.998877 1.971239 0
M  V30 37 H -0.502843 -0.486842 2.554402 0
M  V30 38 H -2.100478 -0.733695 1.639163 0
M  V30 39 H 0.681131 -2.609432 2.873674 0
M  V30 40 H -1.812828 -3.100980 3.207054 0
M  V30 41 H -1.740444 -5.355850 2.865210 0
M  V30 42 H -0.453141 -4.878235 1.747050 0
M  V30 43 H -1.641414 -5.399299 -0.162429 0
M  V30 44 H -2.371685 -6.511682 1.008078 0
M  V30 45 H -4.370376 -5.655410 0.270613 0
M  V30 46 H -3.521753 -4.172928 -0.374401 0
M  V30 47 H -5.100860 -3.751882 1.636814 0
M  V30 48 H -3.769960 -4.605342 2.597808 0
M  V30 49 H -3.587601 -2.205774 2.330458 0
M  V30 50 H -0.266502 -2.707290 -0.608289 0
M  V30 51 H -1.928254 -2.036519 -0.272618 0
M  V30 END ATOM
M  V30 BEGIN BOND
M  V30 1 2 1 2
M  V30 2 1 2 3
M  V30 3 2 3 4
M  V30 4 1 4 5
M  V30 5 2 5 6
M  V30 6 1 6 7
M  V30 7 1 6 8
M  V30 8 1 8 9
M  V30 9 2 8 10
M  V30 10 1 10 11
M  V30 11 1 11 12
M  V30 12 2 12 13
M  V30 13 1 13 14
M  V30 14 2 14 15
M  V30 15 1 15 16
M  V30 16 1 15 17
M  V30 17 2 17 18
M  V30 18 1 18 19
M  V30 19 1 2 20
M  V30 20 1 20 21
M  V30 21 1 21 22
M  V30 22 1 22 23
M  V30 23 1 22 24
M  V30 24 1 24 25
M  V30 25 1 25 26
M  V30 26 1 26 27
M  V30 27 1 27 28
M  V30 28 1 28 29
M  V30 29 1 22 30
M  V30 30 1 10 3
M  V30 31 1 18 12
M  V30 32 1 30 20
M  V30 33 1 29 24
M  V30 34 1 4 31
M  V30 35 1 5 32
M  V30 36 1 11 33
M  V30 37 1 13 34
M  V30 38 1 14 35
M  V30 39 1 17 36
M  V30 40 1 21 37
M  V30 41 1 21 38
M  V30 42 1 23 39
M  V30 43 1 24 40 CFG=1
M  V30 44 1 25 41
M  V30 45 1 25 42
M  V30 46 1 26 43
M  V30 47 1 26 44
M  V30 48 1 27 45
M  V30 49 1 27 46
M  V30 50 1 28 47
M  V30 51 1 28 48
M  V30 52 1 29 49
M  V30 53 1 30 50
M  V30 54 1 30 51
M  V30 END BOND
M  V30 END CTAB
M  END
>  <Dataset>  (220) 
OralDrugs

>  <Ligand_Instance>  (220) 
nan

>  <PDB_ID>  (220) 
nan

>  <Standardized_SMILES>  (220) 
O=C(c1ccc(F)c(F)c1Nc1ccc(I)cc1F)N1CC(O)([C@@H]2CCCCN2)C1

>  <Name>  (220) 
Cobimetinib

>  <Pocket>  (220) 
nan

>  <ATP_Site>  (220) 
nan

>  <Peripheral>  (220) 
nan

>  <Num_H_Atoms_ProtBoundConf>  (220) 
nan

>  <Num_Resolved_Atoms>  (220) 
nan

>  <Num_Not_Resolved_Atoms>  (220) 
nan

$$$$
CHEMBL485
     RDKit          3D

  0  0  0  0  0  0  0  0  0  0999 V3000
M  V30 BEGIN CTAB
M  V30 COUNTS 43 47 0 0 0
M  V30 BEGIN ATOM
M  V30 1 C -2.219750 3.070543 -4.111578 0
M  V30 2 O -1.874566 2.821866 -2.760908 0
M  V30 3 C -1.463054 1.498024 -2.510614 0
M  V30 4 C -1.395722 0.510920 -3.489482 0
M  V30 5 C -0.974791 -0.782428 -3.150945 0
M  V30 6 C -0.608636 -1.141330 -1.844756 0
M  V30 7 C -0.729562 -0.063736 -1.014126 0
M  V30 8 C -1.122450 1.241169 -1.193137 0
M  V30 9 O -1.042473 1.881481 0.061323 0
M  V30 10 C -1.282477 0.818453 1.022226 0 CFG=1
M  V30 11 C -2.718631 0.444903 0.949045 0 CFG=1
M  V30 12 O -3.376823 1.093030 -0.098847 0
M  V30 13 C -2.914298 -1.029307 0.734085 0
M  V30 14 C -2.033465 -2.037376 0.640465 0
M  V30 15 C -0.604600 -1.625308 0.772854 0 CFG=1
M  V30 16 C 0.265789 -2.525072 -0.058541 0 CFG=1
M  V30 17 C -0.192328 -2.505809 -1.490449 0
M  V30 18 N 1.607643 -2.032488 -0.058771 0
M  V30 19 C 2.636748 -2.915447 -0.429211 0
M  V30 20 C 1.884848 -1.057293 0.948263 0
M  V30 21 C 1.060123 0.173175 0.602020 0
M  V30 22 C -0.362219 -0.220396 0.420324 0 CFG=1
M  V30 23 H -1.316556 2.787987 -4.725407 0
M  V30 24 H -2.403351 4.137402 -4.334162 0
M  V30 25 H -3.024319 2.392899 -4.489119 0
M  V30 26 H -1.678040 0.781174 -4.507138 0
M  V30 27 H -0.938811 -1.520949 -3.951188 0
M  V30 28 H -0.947401 1.081037 2.024669 0
M  V30 29 H -3.242424 0.682688 1.913129 0
M  V30 30 H -4.269642 0.634014 -0.202834 0
M  V30 31 H -3.990568 -1.248509 0.647034 0
M  V30 32 H -2.435511 -3.014948 0.483279 0
M  V30 33 H -0.305702 -1.784559 1.841764 0
M  V30 34 H 0.206467 -3.574472 0.350687 0
M  V30 35 H 0.652934 -2.820435 -2.164248 0
M  V30 36 H -1.030973 -3.226662 -1.658206 0
M  V30 37 H 2.309724 -3.991882 -0.500935 0
M  V30 38 H 3.576743 -2.873874 0.150252 0
M  V30 39 H 2.936074 -2.677498 -1.492360 0
M  V30 40 H 2.951188 -0.778725 0.842227 0
M  V30 41 H 1.678874 -1.341970 1.977580 0
M  V30 42 H 1.441188 0.613772 -0.345619 0
M  V30 43 H 1.203313 0.977320 1.359941 0
M  V30 END ATOM
M  V30 BEGIN BOND
M  V30 1 1 1 2
M  V30 2 1 2 3
M  V30 3 2 3 4
M  V30 4 1 4 5
M  V30 5 2 5 6
M  V30 6 1 6 7
M  V30 7 2 7 8
M  V30 8 1 8 9
M  V30 9 1 9 10
M  V30 10 1 10 11
M  V30 11 1 11 12
M  V30 12 1 11 13
M  V30 13 2 13 14
M  V30 14 1 14 15
M  V30 15 1 15 16
M  V30 16 1 16 17
M  V30 17 1 16 18
M  V30 18 1 18 19
M  V30 19 1 18 20
M  V30 20 1 20 21
M  V30 21 1 22 21 CFG=3
M  V30 22 1 8 3
M  V30 23 1 22 10
M  V30 24 1 17 6
M  V30 25 1 22 7
M  V30 26 1 22 15
M  V30 27 1 1 23
M  V30 28 1 1 24
M  V30 29 1 1 25
M  V30 30 1 4 26
M  V30 31 1 5 27
M  V30 32 1 10 28 CFG=1
M  V30 33 1 11 29 CFG=1
M  V30 34 1 12 30
M  V30 35 1 13 31
M  V30 36 1 14 32
M  V30 37 1 15 33 CFG=1
M  V30 38 1 16 34 CFG=1
M  V30 39 1 17 35
M  V30 40 1 17 36
M  V30 41 1 19 37
M  V30 42 1 19 38
M  V30 43 1 19 39
M  V30 44 1 20 40
M  V30 45 1 20 41
M  V30 46 1 21 42
M  V30 47 1 21 43
M  V30 END BOND
M  V30 END CTAB
M  END
>  <Dataset>  (221) 
OralDrugs

>  <Ligand_Instance>  (221) 
nan

>  <PDB_ID>  (221) 
nan

>  <Standardized_SMILES>  (221) 
COc1ccc2c3c1O[C@H]1[C@@H](O)C=C[C@H]4[C@@H](C2)N(C)CC[C@@]341

>  <Name>  (221) 
Codeine

>  <Pocket>  (221) 
nan

>  <ATP_Site>  (221) 
nan

>  <Peripheral>  (221) 
nan

>  <Num_H_Atoms_ProtBoundConf>  (221) 
nan

>  <Num_Resolved_Atoms>  (221) 
nan

>  <Num_Not_Resolved_Atoms>  (221) 
nan

$$$$
CHEMBL107
     RDKit          3D

  0  0  0  0  0  0  0  0  0  0999 V3000
M  V30 BEGIN CTAB
M  V30 COUNTS 54 56 0 0 0
M  V30 BEGIN ATOM
M  V30 1 C 3.055098 -3.893374 3.760041 0
M  V30 2 O 3.280142 -2.625650 3.173030 0
M  V30 3 C 2.204195 -2.046387 2.489375 0
M  V30 4 C 0.978081 -2.718182 2.410384 0
M  V30 5 C -0.074475 -2.171533 1.754071 0
M  V30 6 C 0.166210 -0.930889 1.189144 0
M  V30 7 C 1.321057 -0.172409 1.193223 0
M  V30 8 O 1.530363 1.077241 0.593398 0
M  V30 9 C 2.048673 1.136841 -0.746158 0
M  V30 10 C 2.372697 -0.792436 1.889656 0
M  V30 11 O 3.583828 -0.106552 1.955885 0
M  V30 12 C 3.789553 0.780903 3.050588 0
M  V30 13 C -0.864751 -0.127973 0.489132 0
M  V30 14 C -0.527317 1.188202 0.907527 0
M  V30 15 C -0.885722 2.329479 0.210386 0
M  V30 16 C -1.816290 2.453306 -0.786164 0
M  V30 17 O -2.075089 3.744624 -1.203410 0
M  V30 18 C -1.390122 4.815683 -0.599538 0
M  V30 19 C -2.551129 1.498065 -1.455700 0
M  V30 20 O -3.324858 1.863746 -2.385711 0
M  V30 21 C -2.605128 0.132599 -1.292360 0
M  V30 22 C -1.903439 -0.574768 -0.337904 0
M  V30 23 C -2.420797 -1.996237 -0.262587 0 CFG=1
M  V30 24 N -1.613343 -2.828798 -1.121736 0
M  V30 25 C -2.189873 -3.434392 -2.274496 0
M  V30 26 C -1.433729 -4.314338 -3.226639 0
M  V30 27 O -3.401386 -3.227161 -2.518950 0
M  V30 28 C -2.498016 -2.431701 1.154482 0
M  V30 29 C -1.280420 -3.030672 1.758418 0
M  V30 30 H 3.950054 -4.274411 4.280626 0
M  V30 31 H 2.189693 -3.835289 4.461337 0
M  V30 32 H 2.755112 -4.569818 2.937161 0
M  V30 33 H 0.896739 -3.676375 2.883715 0
M  V30 34 H 1.208146 0.844612 -1.404299 0
M  V30 35 H 2.366288 2.157928 -0.984718 0
M  V30 36 H 2.839885 0.396697 -0.898374 0
M  V30 37 H 3.166041 0.445357 3.917327 0
M  V30 38 H 3.462691 1.809973 2.818502 0
M  V30 39 H 4.850602 0.767506 3.402161 0
M  V30 40 H 0.034440 1.187131 1.874489 0
M  V30 41 H -0.322620 3.168491 0.553536 0
M  V30 42 H -1.525912 4.848085 0.516982 0
M  V30 43 H -0.278026 4.734149 -0.753148 0
M  V30 44 H -1.663616 5.796377 -1.038897 0
M  V30 45 H -3.189125 -0.541336 -1.875429 0
M  V30 46 H -3.443982 -1.972214 -0.690951 0
M  V30 47 H -0.602251 -3.016804 -0.939884 0
M  V30 48 H -1.810120 -4.107240 -4.255651 0
M  V30 49 H -1.482344 -5.377627 -2.964885 0
M  V30 50 H -0.379040 -3.951981 -3.236703 0
M  V30 51 H -3.339166 -3.125151 1.343314 0
M  V30 52 H -2.765695 -1.514534 1.757744 0
M  V30 53 H -0.999762 -3.940042 1.147559 0
M  V30 54 H -1.501084 -3.374171 2.789799 0
M  V30 END ATOM
M  V30 BEGIN BOND
M  V30 1 1 1 2
M  V30 2 1 2 3
M  V30 3 2 3 4
M  V30 4 1 4 5
M  V30 5 2 5 6
M  V30 6 1 6 7
M  V30 7 1 7 8
M  V30 8 1 8 9
M  V30 9 2 7 10
M  V30 10 1 10 11
M  V30 11 1 11 12
M  V30 12 1 6 13
M  V30 13 2 13 14
M  V30 14 1 14 15
M  V30 15 2 15 16
M  V30 16 1 16 17
M  V30 17 1 17 18
M  V30 18 1 16 19
M  V30 19 2 19 20
M  V30 20 1 19 21
M  V30 21 2 21 22
M  V30 22 1 22 23
M  V30 23 1 23 24
M  V30 24 1 24 25
M  V30 25 1 25 26
M  V30 26 2 25 27
M  V30 27 1 23 28
M  V30 28 1 28 29
M  V30 29 1 10 3
M  V30 30 1 22 13
M  V30 31 1 29 5
M  V30 32 1 1 30
M  V30 33 1 1 31
M  V30 34 1 1 32
M  V30 35 1 4 33
M  V30 36 1 9 34
M  V30 37 1 9 35
M  V30 38 1 9 36
M  V30 39 1 12 37
M  V30 40 1 12 38
M  V30 41 1 12 39
M  V30 42 1 14 40
M  V30 43 1 15 41
M  V30 44 1 18 42
M  V30 45 1 18 43
M  V30 46 1 18 44
M  V30 47 1 21 45
M  V30 48 1 23 46 CFG=3
M  V30 49 1 24 47
M  V30 50 1 26 48
M  V30 51 1 26 49
M  V30 52 1 26 50
M  V30 53 1 28 51
M  V30 54 1 28 52
M  V30 55 1 29 53
M  V30 56 1 29 54
M  V30 END BOND
M  V30 END CTAB
M  END
>  <Dataset>  (222) 
OralDrugs

>  <Ligand_Instance>  (222) 
nan

>  <PDB_ID>  (222) 
nan

>  <Standardized_SMILES>  (222) 
COc1cc2c(c(OC)c1OC)-c1ccc(OC)c(=O)cc1[C@@H](NC(C)=O)CC2

>  <Name>  (222) 
Colchicine

>  <Pocket>  (222) 
nan

>  <ATP_Site>  (222) 
nan

>  <Peripheral>  (222) 
nan

>  <Num_H_Atoms_ProtBoundConf>  (222) 
nan

>  <Num_Resolved_Atoms>  (222) 
nan

>  <Num_Not_Resolved_Atoms>  (222) 
nan

$$$$
CHEMBL1650
     RDKit          3D

  0  0  0  0  0  0  0  0  0  0999 V3000
M  V30 BEGIN CTAB
M  V30 COUNTS 59 62 0 0 0
M  V30 BEGIN ATOM
M  V30 1 C 1.765954 -2.872730 5.370729 0
M  V30 2 C 2.906161 -3.199567 4.455123 0
M  V30 3 O 3.800118 -4.064653 4.643646 0
M  V30 4 O 2.913501 -2.427577 3.296820 0
M  V30 5 C 3.906940 -2.589607 2.316334 0
M  V30 6 C 3.680565 -1.633034 1.170649 0
M  V30 7 O 4.400601 -1.582812 0.210200 0
M  V30 8 C 2.535945 -0.712607 1.208262 0 CFG=1
M  V30 9 O 1.762793 -0.837253 2.345120 0
M  V30 10 C 2.944098 0.762495 1.107844 0
M  V30 11 C 1.787031 1.457291 0.371774 0
M  V30 12 C 0.753550 0.409270 0.411036 0 CFG=1
M  V30 13 C -0.401356 0.491113 -0.508020 0 CFG=2
M  V30 14 C -1.130073 1.789651 -0.460254 0
M  V30 15 C -2.455891 1.776232 -1.145132 0
M  V30 16 C -3.210978 0.490102 -0.979368 0
M  V30 17 C -4.539336 0.533098 -0.781698 0
M  V30 18 C -5.322969 -0.708771 -0.613234 0
M  V30 19 O -6.529358 -0.566553 -0.900177 0
M  V30 20 C -4.477066 -1.832213 -0.139876 0
M  V30 21 C -3.229615 -1.991377 -0.966701 0
M  V30 22 C -2.388708 -0.774770 -1.049355 0 CFG=1
M  V30 23 C -1.768865 -0.730027 -2.453328 0
M  V30 24 C -1.352088 -0.604439 0.000292 0 CFG=1
M  V30 25 C -0.631053 -1.796214 0.435190 0
M  V30 26 O -1.090617 -2.645890 1.178258 0
M  V30 27 C 0.774683 -2.050814 -0.027752 0
M  V30 28 C 1.611902 -0.807733 0.026217 0 CFG=2
M  V30 29 C 2.358887 -0.593892 -1.246384 0
M  V30 30 H 1.594022 -1.785455 5.406323 0
M  V30 31 H 0.834244 -3.417691 5.061842 0
M  V30 32 H 1.990624 -3.191483 6.430187 0
M  V30 33 H 3.981985 -3.607930 1.907178 0
M  V30 34 H 4.893069 -2.373555 2.822025 0
M  V30 35 H 1.981370 -0.135687 3.001708 0
M  V30 36 H 3.021567 1.182528 2.149252 0
M  V30 37 H 3.909509 0.913518 0.628499 0
M  V30 38 H 2.078686 1.809064 -0.626293 0
M  V30 39 H 1.447891 2.320102 0.991689 0
M  V30 40 H 0.435583 0.245028 1.441859 0
M  V30 41 H -0.124134 0.309343 -1.554742 0
M  V30 42 H -1.153153 2.193449 0.576934 0
M  V30 43 H -0.485863 2.525267 -1.026749 0
M  V30 44 H -2.417171 2.093214 -2.207969 0
M  V30 45 H -3.053614 2.602110 -0.654053 0
M  V30 46 H -4.983221 1.540899 -0.756421 0
M  V30 47 H -5.076983 -2.759045 -0.253835 0
M  V30 48 H -4.282234 -1.686011 0.923345 0
M  V30 49 H -2.631828 -2.821630 -0.549835 0
M  V30 50 H -3.522178 -2.300818 -2.009929 0
M  V30 51 H -1.695359 0.300676 -2.846140 0
M  V30 52 H -2.512801 -1.228839 -3.143350 0
M  V30 53 H -0.854630 -1.317946 -2.537616 0
M  V30 54 H -1.852662 -0.131956 0.897487 0
M  V30 55 H 0.699411 -2.406541 -1.075224 0
M  V30 56 H 1.289106 -2.832530 0.528561 0
M  V30 57 H 1.800859 -0.140199 -2.064172 0
M  V30 58 H 2.690032 -1.593461 -1.600744 0
M  V30 59 H 3.291986 -0.006078 -1.126485 0
M  V30 END ATOM
M  V30 BEGIN BOND
M  V30 1 1 1 2
M  V30 2 2 2 3
M  V30 3 1 2 4
M  V30 4 1 4 5
M  V30 5 1 5 6
M  V30 6 2 6 7
M  V30 7 1 6 8
M  V30 8 1 8 9 CFG=1
M  V30 9 1 8 10
M  V30 10 1 10 11
M  V30 11 1 11 12
M  V30 12 1 12 13
M  V30 13 1 13 14
M  V30 14 1 14 15
M  V30 15 1 15 16
M  V30 16 2 16 17
M  V30 17 1 17 18
M  V30 18 2 18 19
M  V30 19 1 18 20
M  V30 20 1 20 21
M  V30 21 1 21 22
M  V30 22 1 22 23 CFG=3
M  V30 23 1 22 24
M  V30 24 1 24 25
M  V30 25 2 25 26
M  V30 26 1 25 27
M  V30 27 1 27 28
M  V30 28 1 28 29 CFG=3
M  V30 29 1 28 8
M  V30 30 1 28 12
M  V30 31 1 24 13
M  V30 32 1 22 16
M  V30 33 1 1 30
M  V30 34 1 1 31
M  V30 35 1 1 32
M  V30 36 1 5 33
M  V30 37 1 5 34
M  V30 38 1 9 35
M  V30 39 1 10 36
M  V30 40 1 10 37
M  V30 41 1 11 38
M  V30 42 1 11 39
M  V30 43 1 12 40 CFG=1
M  V30 44 1 13 41 CFG=3
M  V30 45 1 14 42
M  V30 46 1 14 43
M  V30 47 1 15 44
M  V30 48 1 15 45
M  V30 49 1 17 46
M  V30 50 1 20 47
M  V30 51 1 20 48
M  V30 52 1 21 49
M  V30 53 1 21 50
M  V30 54 1 23 51
M  V30 55 1 23 52
M  V30 56 1 23 53
M  V30 57 1 24 54 CFG=1
M  V30 58 1 27 55
M  V30 59 1 27 56
M  V30 60 1 29 57
M  V30 61 1 29 58
M  V30 62 1 29 59
M  V30 END BOND
M  V30 END CTAB
M  END
>  <Dataset>  (223) 
OralDrugs

>  <Ligand_Instance>  (223) 
nan

>  <PDB_ID>  (223) 
nan

>  <Standardized_SMILES>  (223) 
CC(=O)OCC(=O)[C@@]1(O)CC[C@H]2[C@@H]3CCC4=CC(=O)CC[C@]4(C)[C@H]3C(=O)C[C@@]21C

>  <Name>  (223) 
Cortisone Acetate

>  <Pocket>  (223) 
nan

>  <ATP_Site>  (223) 
nan

>  <Peripheral>  (223) 
nan

>  <Num_H_Atoms_ProtBoundConf>  (223) 
nan

>  <Num_Resolved_Atoms>  (223) 
nan

>  <Num_Not_Resolved_Atoms>  (223) 
nan

$$$$
CHEMBL4596392
     RDKit          3D

  0  0  0  0  0  0  0  0  0  0999 V3000
M  V30 BEGIN CTAB
M  V30 COUNTS 53 56 0 0 0
M  V30 BEGIN ATOM
M  V30 1 C -4.327019 3.167002 -2.773093 0
M  V30 2 N -2.994136 3.081743 -2.177304 0
M  V30 3 C -2.867399 2.001013 -1.267180 0
M  V30 4 O -3.962847 1.397307 -1.220837 0
M  V30 5 C -1.613432 1.757403 -0.576553 0
M  V30 6 N -0.581239 2.579451 -0.821359 0
M  V30 7 N 0.588195 2.415744 -0.227749 0
M  V30 8 C 0.807689 1.417643 0.653154 0
M  V30 9 N 2.096054 1.309760 1.249183 0
M  V30 10 C 3.083287 2.269331 0.876609 0
M  V30 11 O 2.873322 3.207815 0.046752 0
M  V30 12 C 4.424488 2.162654 1.492579 0
M  V30 13 C 4.980581 3.490158 1.961242 0
M  V30 14 C 5.611008 2.744535 0.832334 0
M  V30 15 C -0.213221 0.537954 0.948411 0
M  V30 16 C -1.412922 0.733616 0.317127 0
M  V30 17 N -2.460812 -0.174831 0.616436 0
M  V30 18 C -2.400801 -1.275071 1.479595 0
M  V30 19 C -3.149834 -1.480566 2.629176 0
M  V30 20 C -3.107309 -2.549451 3.474191 0
M  V30 21 C -2.212528 -3.547269 3.148315 0
M  V30 22 C -1.419030 -3.446502 2.028722 0
M  V30 23 C -0.491603 -4.531517 1.734352 0
M  V30 24 N -0.368719 -5.629935 2.500184 0
M  V30 25 C 0.556736 -6.455994 1.990424 0
M  V30 26 N 1.028175 -5.857246 0.871241 0
M  V30 27 C 2.044280 -6.485017 0.076136 0
M  V30 28 N 0.382535 -4.713042 0.748103 0
M  V30 29 C -1.518596 -2.321034 1.210106 0
M  V30 30 O -0.669787 -2.336044 0.113630 0
M  V30 31 C -1.049476 -2.889925 -1.133899 0
M  V30 32 H -4.355063 4.159350 -3.294973 0
M  V30 33 H -5.063809 3.255855 -1.955132 0
M  V30 34 H -4.513857 2.350190 -3.471735 0
M  V30 35 H -2.197491 3.754203 -2.396834 0
M  V30 36 H 2.289432 0.546418 1.933129 0
M  V30 37 H 4.623478 1.345973 2.220806 0
M  V30 38 H 5.520689 3.555134 2.935207 0
M  V30 39 H 4.394806 4.423638 1.783034 0
M  V30 40 H 5.530154 3.231768 -0.165864 0
M  V30 41 H 6.612163 2.305251 1.023251 0
M  V30 42 H 0.048470 -0.211435 1.653924 0
M  V30 43 H -3.450171 -0.256753 0.305090 0
M  V30 44 H -3.859263 -0.677429 2.877293 0
M  V30 45 H -3.747464 -2.586860 4.340156 0
M  V30 46 H -2.162180 -4.408403 3.808431 0
M  V30 47 H 0.764673 -7.385663 2.503120 0
M  V30 48 H 2.735818 -7.097118 0.690244 0
M  V30 49 H 2.658314 -5.644092 -0.361289 0
M  V30 50 H 1.644456 -7.140161 -0.728502 0
M  V30 51 H -1.589764 -2.159358 -1.774110 0
M  V30 52 H -0.177854 -3.242269 -1.716456 0
M  V30 53 H -1.775112 -3.711907 -0.941213 0
M  V30 END ATOM
M  V30 BEGIN BOND
M  V30 1 1 1 2
M  V30 2 1 2 3
M  V30 3 2 3 4
M  V30 4 1 3 5
M  V30 5 2 5 6
M  V30 6 1 6 7
M  V30 7 2 7 8
M  V30 8 1 8 9
M  V30 9 1 9 10
M  V30 10 2 10 11
M  V30 11 1 10 12
M  V30 12 1 12 13
M  V30 13 1 13 14
M  V30 14 1 8 15
M  V30 15 2 15 16
M  V30 16 1 16 17
M  V30 17 1 17 18
M  V30 18 2 18 19
M  V30 19 1 19 20
M  V30 20 2 20 21
M  V30 21 1 21 22
M  V30 22 1 22 23
M  V30 23 1 23 24
M  V30 24 2 24 25
M  V30 25 1 25 26
M  V30 26 1 26 27
M  V30 27 1 26 28
M  V30 28 2 22 29
M  V30 29 1 29 30
M  V30 30 1 30 31
M  V30 31 1 16 5
M  V30 32 1 29 18
M  V30 33 1 14 12
M  V30 34 2 28 23
M  V30 35 1 1 32
M  V30 36 1 1 33
M  V30 37 1 1 34
M  V30 38 1 2 35
M  V30 39 1 9 36
M  V30 40 1 12 37
M  V30 41 1 13 38
M  V30 42 1 13 39
M  V30 43 1 14 40
M  V30 44 1 14 41
M  V30 45 1 15 42
M  V30 46 1 17 43
M  V30 47 1 19 44
M  V30 48 1 20 45
M  V30 49 1 21 46
M  V30 50 1 25 47
M  V30 51 1 27 48
M  V30 52 1 27 49
M  V30 53 1 27 50
M  V30 54 1 31 51
M  V30 55 1 31 52
M  V30 56 1 31 53
M  V30 END BOND
M  V30 END CTAB
M  END
>  <Dataset>  (224) 
OralDrugs

>  <Ligand_Instance>  (224) 
nan

>  <PDB_ID>  (224) 
nan

>  <Standardized_SMILES>  (224) 
CNC(=O)c1nnc(NC(=O)C2CC2)cc1Nc1cccc(-c2ncn(C)n2)c1OC

>  <Name>  (224) 
Cravacitinib

>  <Pocket>  (224) 
nan

>  <ATP_Site>  (224) 
nan

>  <Peripheral>  (224) 
nan

>  <Num_H_Atoms_ProtBoundConf>  (224) 
nan

>  <Num_Resolved_Atoms>  (224) 
nan

>  <Num_Not_Resolved_Atoms>  (224) 
nan

$$$$
CHEMBL601719
     RDKit          3D

  0  0  0  0  0  0  0  0  0  0999 V3000
M  V30 BEGIN CTAB
M  V30 COUNTS 52 55 0 0 0
M  V30 BEGIN ATOM
M  V30 1 C 0.472827 -5.336869 2.208427 0
M  V30 2 C -0.286704 -4.415936 1.293203 0 CFG=1
M  V30 3 O 0.334563 -4.254447 0.056046 0
M  V30 4 C 0.812345 -3.106379 -0.506913 0
M  V30 5 C 0.813791 -1.829510 -0.024643 0
M  V30 6 C 1.352670 -0.797773 -0.759753 0
M  V30 7 C 1.344049 0.559976 -0.225037 0
M  V30 8 C 2.298293 1.522393 -0.485439 0
M  V30 9 N 1.898435 2.621298 0.209350 0
M  V30 10 N 0.763530 2.329951 0.851741 0
M  V30 11 C 0.168496 3.380547 1.658068 0
M  V30 12 C 1.218776 4.111276 2.436430 0
M  V30 13 C 1.865325 5.233981 1.694380 0
M  V30 14 N 1.091080 5.822699 0.650982 0
M  V30 15 C -0.314854 5.723510 0.903528 0
M  V30 16 C -0.686118 4.267036 0.802063 0
M  V30 17 C 0.373994 1.063388 0.617391 0
M  V30 18 C 1.906145 -1.025845 -2.004206 0
M  V30 19 N 1.900133 -2.290439 -2.472239 0
M  V30 20 C 1.377536 -3.317950 -1.769588 0
M  V30 21 N 1.509306 -4.538692 -2.509243 0
M  V30 22 C -1.693586 -4.858597 1.117205 0
M  V30 23 C -2.716864 -4.424878 1.946225 0
M  V30 24 Cl -2.294710 -3.303779 3.250505 0
M  V30 25 C -4.040047 -4.797905 1.835637 0
M  V30 26 C -4.388222 -5.675273 0.819809 0
M  V30 27 C -3.416591 -6.139914 -0.034239 0
M  V30 28 F -3.745117 -7.008919 -1.044816 0
M  V30 29 C -2.109479 -5.731253 0.125866 0
M  V30 30 Cl -0.928031 -6.358823 -0.991352 0
M  V30 31 H -0.215122 -5.971242 2.807358 0
M  V30 32 H 1.087102 -4.747959 2.905132 0
M  V30 33 H 1.141834 -6.043246 1.671329 0
M  V30 34 H -0.339592 -3.413095 1.786203 0
M  V30 35 H 0.376337 -1.708213 0.936624 0
M  V30 36 H 3.177294 1.408940 -1.115175 0
M  V30 37 H -0.502221 2.873052 2.387085 0
M  V30 38 H 0.783367 4.449265 3.407777 0
M  V30 39 H 2.008754 3.377477 2.704686 0
M  V30 40 H 2.139841 6.021111 2.436560 0
M  V30 41 H 2.847390 4.931894 1.230221 0
M  V30 42 H 1.347616 6.834442 0.574357 0
M  V30 43 H -0.849866 6.261382 0.091550 0
M  V30 44 H -0.652641 6.167835 1.859089 0
M  V30 45 H -0.554467 3.994864 -0.266255 0
M  V30 46 H -1.771294 4.174108 1.013755 0
M  V30 47 H -0.509194 0.620894 1.033190 0
M  V30 48 H 2.326998 -0.194493 -2.568627 0
M  V30 49 H 2.087638 -5.382547 -2.605393 0
M  V30 50 H 0.733024 -4.597030 -3.211386 0
M  V30 51 H -4.768122 -4.406069 2.530866 0
M  V30 52 H -5.411302 -5.970785 0.725356 0
M  V30 END ATOM
M  V30 BEGIN BOND
M  V30 1 1 1 2
M  V30 2 1 2 3
M  V30 3 1 3 4
M  V30 4 2 4 5
M  V30 5 1 5 6
M  V30 6 1 6 7
M  V30 7 1 7 8
M  V30 8 2 8 9
M  V30 9 1 9 10
M  V30 10 1 10 11
M  V30 11 1 11 12
M  V30 12 1 12 13
M  V30 13 1 13 14
M  V30 14 1 14 15
M  V30 15 1 15 16
M  V30 16 1 10 17
M  V30 17 2 6 18
M  V30 18 1 18 19
M  V30 19 2 19 20
M  V30 20 1 20 21
M  V30 21 1 2 22
M  V30 22 2 22 23
M  V30 23 1 23 24
M  V30 24 1 23 25
M  V30 25 2 25 26
M  V30 26 1 26 27
M  V30 27 1 27 28
M  V30 28 2 27 29
M  V30 29 1 29 30
M  V30 30 1 20 4
M  V30 31 1 29 22
M  V30 32 2 17 7
M  V30 33 1 16 11
M  V30 34 1 1 31
M  V30 35 1 1 32
M  V30 36 1 1 33
M  V30 37 1 2 34 CFG=1
M  V30 38 1 5 35
M  V30 39 1 8 36
M  V30 40 1 11 37
M  V30 41 1 12 38
M  V30 42 1 12 39
M  V30 43 1 13 40
M  V30 44 1 13 41
M  V30 45 1 14 42
M  V30 46 1 15 43
M  V30 47 1 15 44
M  V30 48 1 16 45
M  V30 49 1 16 46
M  V30 50 1 17 47
M  V30 51 1 18 48
M  V30 52 1 21 49
M  V30 53 1 21 50
M  V30 54 1 25 51
M  V30 55 1 26 52
M  V30 END BOND
M  V30 END CTAB
M  END
>  <Dataset>  (225) 
OralDrugs

>  <Ligand_Instance>  (225) 
nan

>  <PDB_ID>  (225) 
nan

>  <Standardized_SMILES>  (225) 
C[C@@H](Oc1cc(-c2cnn(C3CCNCC3)c2)cnc1N)c1c(Cl)ccc(F)c1Cl

>  <Name>  (225) 
Crizotinib

>  <Pocket>  (225) 
nan

>  <ATP_Site>  (225) 
nan

>  <Peripheral>  (225) 
nan

>  <Num_H_Atoms_ProtBoundConf>  (225) 
nan

>  <Num_Resolved_Atoms>  (225) 
nan

>  <Num_Not_Resolved_Atoms>  (225) 
nan

$$$$
CHEMBL428880
     RDKit          3D

  0  0  0  0  0  0  0  0  0  0999 V3000
M  V30 BEGIN CTAB
M  V30 COUNTS 50 53 0 0 0
M  V30 BEGIN ATOM
M  V30 1 O 6.111464 -5.691692 1.060314 0
M  V30 2 C 5.692856 -4.677827 1.690806 0
M  V30 3 O 6.115482 -4.669173 2.993883 0
M  V30 4 C 4.857046 -3.629421 1.115964 0
M  V30 5 C 4.423545 -2.539940 1.843076 0
M  V30 6 C 3.633738 -1.580533 1.241178 0
M  V30 7 O 3.228113 -0.588176 1.870780 0
M  V30 8 C 3.268195 -1.704575 -0.104779 0
M  V30 9 C 2.470567 -0.762498 -0.763200 0
M  V30 10 O 2.089234 0.293333 0.059818 0
M  V30 11 C 1.278955 1.280199 -0.552992 0
M  V30 12 C 0.913717 2.384433 0.411553 0
M  V30 13 O 2.147500 2.942261 0.824676 0
M  V30 14 C 0.302427 1.821029 1.636965 0
M  V30 15 O -0.911282 1.204515 1.566483 0
M  V30 16 C -2.146599 1.588487 1.197647 0
M  V30 17 C -2.634609 2.795733 0.743501 0
M  V30 18 C -3.951505 3.015176 0.405987 0
M  V30 19 C -4.840997 1.972537 0.526146 0
M  V30 20 C -4.422133 0.738350 0.973863 0
M  V30 21 O -5.318984 -0.211275 1.065340 0
M  V30 22 C -5.073334 -1.423973 1.470847 0
M  V30 23 C -6.063940 -2.487736 1.576234 0
M  V30 24 O -5.796162 -3.639407 1.968455 0
M  V30 25 O -7.390758 -2.292012 1.243697 0
M  V30 26 C -3.766933 -1.693470 1.820784 0
M  V30 27 C -2.774734 -0.738988 1.747667 0
M  V30 28 O -1.580325 -0.960007 2.060169 0
M  V30 29 C -3.076601 0.546762 1.309133 0
M  V30 30 C 2.163553 -0.972423 -2.092535 0
M  V30 31 C 2.644681 -2.094333 -2.735830 0
M  V30 32 C 3.431670 -3.024985 -2.088315 0
M  V30 33 C 3.751131 -2.827485 -0.744387 0
M  V30 34 O 4.502442 -3.726175 -0.145440 0
M  V30 35 H 6.351088 -5.495995 3.554349 0
M  V30 36 H 4.708175 -2.449954 2.878894 0
M  V30 37 H 0.332264 0.858192 -0.934812 0
M  V30 38 H 1.874451 1.642017 -1.409442 0
M  V30 39 H 0.354826 3.193340 -0.074844 0
M  V30 40 H 2.533570 3.508416 0.113110 0
M  V30 41 H 0.213496 2.673065 2.373663 0
M  V30 42 H 1.063948 1.140447 2.102551 0
M  V30 43 H -1.880805 3.561178 0.677698 0
M  V30 44 H -4.251249 3.989224 0.059052 0
M  V30 45 H -5.882670 2.135721 0.262209 0
M  V30 46 H -8.055662 -3.052242 1.108729 0
M  V30 47 H -3.463892 -2.671398 2.169588 0
M  V30 48 H 1.544233 -0.199299 -2.525652 0
M  V30 49 H 2.382844 -2.221796 -3.772480 0
M  V30 50 H 3.799485 -3.899064 -2.610837 0
M  V30 END ATOM
M  V30 BEGIN BOND
M  V30 1 2 1 2
M  V30 2 1 2 3
M  V30 3 1 2 4
M  V30 4 2 4 5
M  V30 5 1 5 6
M  V30 6 2 6 7
M  V30 7 1 6 8
M  V30 8 2 8 9
M  V30 9 1 9 10
M  V30 10 1 10 11
M  V30 11 1 11 12
M  V30 12 1 12 13
M  V30 13 1 12 14
M  V30 14 1 14 15
M  V30 15 1 15 16
M  V30 16 2 16 17
M  V30 17 1 17 18
M  V30 18 2 18 19
M  V30 19 1 19 20
M  V30 20 1 20 21
M  V30 21 1 21 22
M  V30 22 1 22 23
M  V30 23 2 23 24
M  V30 24 1 23 25
M  V30 25 2 22 26
M  V30 26 1 26 27
M  V30 27 2 27 28
M  V30 28 1 27 29
M  V30 29 1 9 30
M  V30 30 2 30 31
M  V30 31 1 31 32
M  V30 32 2 32 33
M  V30 33 1 33 34
M  V30 34 1 34 4
M  V30 35 1 33 8
M  V30 36 1 29 16
M  V30 37 2 29 20
M  V30 38 1 3 35
M  V30 39 1 5 36
M  V30 40 1 11 37
M  V30 41 1 11 38
M  V30 42 1 12 39
M  V30 43 1 13 40
M  V30 44 1 14 41
M  V30 45 1 14 42
M  V30 46 1 17 43
M  V30 47 1 18 44
M  V30 48 1 19 45
M  V30 49 1 25 46
M  V30 50 1 26 47
M  V30 51 1 30 48
M  V30 52 1 31 49
M  V30 53 1 32 50
M  V30 END BOND
M  V30 END CTAB
M  END
>  <Dataset>  (226) 
OralDrugs

>  <Ligand_Instance>  (226) 
nan

>  <PDB_ID>  (226) 
nan

>  <Standardized_SMILES>  (226) 
O=C(O)c1cc(=O)c2c(OCC(O)COc3cccc4oc(C(=O)O)cc(=O)c34)cccc2o1

>  <Name>  (226) 
Cromolyn

>  <Pocket>  (226) 
nan

>  <ATP_Site>  (226) 
nan

>  <Peripheral>  (226) 
nan

>  <Num_H_Atoms_ProtBoundConf>  (226) 
nan

>  <Num_Resolved_Atoms>  (226) 
nan

>  <Num_Not_Resolved_Atoms>  (226) 
nan

$$$$
CHEMBL1200356
     RDKit          3D

  0  0  0  0  0  0  0  0  0  0999 V3000
M  V30 BEGIN CTAB
M  V30 COUNTS 46 48 0 0 0
M  V30 BEGIN ATOM
M  V30 1 C -2.155053 -4.678477 0.542463 0
M  V30 2 C -1.533240 -3.494887 1.246932 0
M  V30 3 C -0.446841 -3.968960 2.182792 0
M  V30 4 S -0.936528 -2.260291 0.055353 0
M  V30 5 C -2.011300 -0.895186 0.585888 0 CFG=2
M  V30 6 C -1.316047 0.367930 1.005516 0 CFG=2
M  V30 7 N 0.095078 0.443361 0.800859 0
M  V30 8 C 0.638172 1.551553 0.143702 0
M  V30 9 O -0.122396 2.491571 -0.276367 0
M  V30 10 C 1.939060 2.105785 -0.301907 0
M  V30 11 N 1.585292 3.295259 -1.132866 0
M  V30 12 C 2.671008 2.703825 0.868003 0
M  V30 13 C 3.428267 1.645382 1.608121 0
M  V30 14 C 4.464105 1.058950 0.652468 0
M  V30 15 C 3.755891 0.351125 -0.482609 0
M  V30 16 C 2.747967 1.211565 -1.155607 0
M  V30 17 C -1.804021 0.027884 2.345967 0
M  V30 18 O -1.829243 0.760598 3.369408 0
M  V30 19 N -2.164654 -1.298046 1.969706 0
M  V30 20 C -2.556757 -2.693569 2.020316 0 CFG=1
M  V30 21 C -3.924508 -2.779662 1.408219 0
M  V30 22 O -4.726548 -1.915055 0.914276 0
M  V30 23 O -5.120292 -3.302783 0.938976 0
M  V30 24 H -1.379055 -5.091598 -0.140831 0
M  V30 25 H -2.425208 -5.461228 1.253615 0
M  V30 26 H -3.011087 -4.260955 -0.038942 0
M  V30 27 H -0.754832 -4.999700 2.520401 0
M  V30 28 H 0.550516 -4.052586 1.701596 0
M  V30 29 H -0.423881 -3.353471 3.108807 0
M  V30 30 H -2.926784 -0.770166 -0.006829 0
M  V30 31 H -1.874296 1.234922 0.601672 0
M  V30 32 H 0.871747 -0.182799 1.038422 0
M  V30 33 H 0.904766 2.941479 -1.829584 0
M  V30 34 H 1.084591 3.960475 -0.507947 0
M  V30 35 H 1.917268 3.201261 1.538420 0
M  V30 36 H 3.430546 3.460309 0.531710 0
M  V30 37 H 2.774032 0.838158 1.924693 0
M  V30 38 H 4.001731 2.087737 2.463583 0
M  V30 39 H 5.042580 0.294029 1.192821 0
M  V30 40 H 5.102878 1.877045 0.293160 0
M  V30 41 H 3.371414 -0.607464 -0.086189 0
M  V30 42 H 4.528602 0.067262 -1.233558 0
M  V30 43 H 3.273258 1.835518 -1.937531 0
M  V30 44 H 2.067969 0.560422 -1.744899 0
M  V30 45 H -2.607981 -3.047558 3.087817 0
M  V30 46 H -5.307886 -4.305433 0.847886 0
M  V30 END ATOM
M  V30 BEGIN BOND
M  V30 1 1 1 2
M  V30 2 1 2 3
M  V30 3 1 2 4
M  V30 4 1 4 5
M  V30 5 1 5 6
M  V30 6 1 6 7
M  V30 7 1 7 8
M  V30 8 2 8 9
M  V30 9 1 8 10
M  V30 10 1 10 11
M  V30 11 1 10 12
M  V30 12 1 12 13
M  V30 13 1 13 14
M  V30 14 1 14 15
M  V30 15 1 15 16
M  V30 16 1 6 17
M  V30 17 2 17 18
M  V30 18 1 17 19
M  V30 19 1 19 20
M  V30 20 1 20 21
M  V30 21 2 21 22
M  V30 22 1 21 23
M  V30 23 1 20 2
M  V30 24 1 19 5
M  V30 25 1 16 10
M  V30 26 1 1 24
M  V30 27 1 1 25
M  V30 28 1 1 26
M  V30 29 1 3 27
M  V30 30 1 3 28
M  V30 31 1 3 29
M  V30 32 1 5 30 CFG=3
M  V30 33 1 6 31 CFG=3
M  V30 34 1 7 32
M  V30 35 1 11 33
M  V30 36 1 11 34
M  V30 37 1 12 35
M  V30 38 1 12 36
M  V30 39 1 13 37
M  V30 40 1 13 38
M  V30 41 1 14 39
M  V30 42 1 14 40
M  V30 43 1 15 41
M  V30 44 1 15 42
M  V30 45 1 16 43
M  V30 46 1 16 44
M  V30 47 1 20 45 CFG=1
M  V30 48 1 23 46
M  V30 END BOND
M  V30 END CTAB
M  END
>  <Dataset>  (227) 
OralDrugs

>  <Ligand_Instance>  (227) 
nan

>  <PDB_ID>  (227) 
nan

>  <Standardized_SMILES>  (227) 
CC1(C)S[C@@H]2[C@H](NC(=O)C3(N)CCCCC3)C(=O)N2[C@H]1C(=O)O

>  <Name>  (227) 
Cyclacillin

>  <Pocket>  (227) 
nan

>  <ATP_Site>  (227) 
nan

>  <Peripheral>  (227) 
nan

>  <Num_H_Atoms_ProtBoundConf>  (227) 
nan

>  <Num_Resolved_Atoms>  (227) 
nan

>  <Num_Not_Resolved_Atoms>  (227) 
nan

$$$$
CHEMBL669
     RDKit          3D

  0  0  0  0  0  0  0  0  0  0999 V3000
M  V30 BEGIN CTAB
M  V30 COUNTS 42 44 0 0 0
M  V30 BEGIN ATOM
M  V30 1 C -2.310085 -3.934111 1.508837 0
M  V30 2 N -2.527380 -3.362153 0.201020 0
M  V30 3 C -2.539488 -4.491902 -0.741833 0
M  V30 4 C -1.420199 -2.530915 -0.220182 0
M  V30 5 C -1.355440 -1.305018 0.631554 0
M  V30 6 C -0.260955 -0.376645 0.302915 0
M  V30 7 C 0.856938 0.277730 0.619474 0
M  V30 8 C 1.470784 1.176887 -0.397093 0
M  V30 9 C 1.321156 0.604610 -1.641341 0
M  V30 10 C 1.829841 1.345493 -2.683939 0
M  V30 11 C 2.440937 2.578511 -2.428664 0
M  V30 12 C 2.562764 3.104100 -1.146248 0
M  V30 13 C 2.068234 2.399104 -0.068125 0
M  V30 14 C 2.255578 3.055042 1.225978 0
M  V30 15 C 2.214523 2.498959 2.443318 0
M  V30 16 C 1.968297 1.081767 2.754254 0
M  V30 17 C 2.393832 0.718743 4.005716 0
M  V30 18 C 2.238155 -0.591850 4.424061 0
M  V30 19 C 1.662051 -1.582326 3.628070 0
M  V30 20 C 1.224510 -1.254659 2.368488 0
M  V30 21 C 1.395494 0.058499 1.989320 0
M  V30 22 H -2.497146 -5.035878 1.535873 0
M  V30 23 H -3.009535 -3.500086 2.273437 0
M  V30 24 H -1.243720 -3.805086 1.827653 0
M  V30 25 H -3.490307 -5.034756 -0.722727 0
M  V30 26 H -2.312710 -4.056219 -1.737241 0
M  V30 27 H -1.652694 -5.122569 -0.438806 0
M  V30 28 H -1.553980 -2.209160 -1.268008 0
M  V30 29 H -0.512877 -3.156350 -0.170980 0
M  V30 30 H -2.357279 -0.778439 0.470904 0
M  V30 31 H -1.406845 -1.509184 1.736945 0
M  V30 32 H -0.617058 -0.156540 -0.687680 0
M  V30 33 H 0.852272 -0.355946 -1.764684 0
M  V30 34 H 1.741621 0.948756 -3.683816 0
M  V30 35 H 2.837651 3.146554 -3.285335 0
M  V30 36 H 3.030674 4.050045 -0.941255 0
M  V30 37 H 2.447702 4.106091 1.163339 0
M  V30 38 H 2.376084 3.136224 3.291891 0
M  V30 39 H 2.841199 1.478138 4.630982 0
M  V30 40 H 2.580570 -0.881402 5.430875 0
M  V30 41 H 1.539629 -2.603603 3.950249 0
M  V30 42 H 0.782094 -1.923003 1.644520 0
M  V30 END ATOM
M  V30 BEGIN BOND
M  V30 1 1 1 2
M  V30 2 1 2 3
M  V30 3 1 2 4
M  V30 4 1 4 5
M  V30 5 1 5 6
M  V30 6 2 6 7 CFG=2
M  V30 7 1 7 8
M  V30 8 2 8 9
M  V30 9 1 9 10
M  V30 10 2 10 11
M  V30 11 1 11 12
M  V30 12 2 12 13
M  V30 13 1 13 14
M  V30 14 2 14 15
M  V30 15 1 15 16
M  V30 16 2 16 17
M  V30 17 1 17 18
M  V30 18 2 18 19
M  V30 19 1 19 20
M  V30 20 2 20 21
M  V30 21 1 21 7
M  V30 22 1 13 8
M  V30 23 1 21 16
M  V30 24 1 1 22
M  V30 25 1 1 23
M  V30 26 1 1 24
M  V30 27 1 3 25
M  V30 28 1 3 26
M  V30 29 1 3 27
M  V30 30 1 4 28
M  V30 31 1 4 29
M  V30 32 1 5 30
M  V30 33 1 5 31
M  V30 34 1 6 32
M  V30 35 1 9 33
M  V30 36 1 10 34
M  V30 37 1 11 35
M  V30 38 1 12 36
M  V30 39 1 14 37
M  V30 40 1 15 38
M  V30 41 1 17 39
M  V30 42 1 18 40
M  V30 43 1 19 41
M  V30 44 1 20 42
M  V30 END BOND
M  V30 END CTAB
M  END
>  <Dataset>  (228) 
OralDrugs

>  <Ligand_Instance>  (228) 
nan

>  <PDB_ID>  (228) 
nan

>  <Standardized_SMILES>  (228) 
CN(C)CCC=C1c2ccccc2C=Cc2ccccc21

>  <Name>  (228) 
Cyclobenzaprine

>  <Pocket>  (228) 
nan

>  <ATP_Site>  (228) 
nan

>  <Peripheral>  (228) 
nan

>  <Num_H_Atoms_ProtBoundConf>  (228) 
nan

>  <Num_Resolved_Atoms>  (228) 
nan

>  <Num_Not_Resolved_Atoms>  (228) 
nan

$$$$
CHEMBL771
     RDKit          3D

  0  0  0  0  0  0  0  0  0  0999 V3000
M  V30 BEGIN CTAB
M  V30 COUNTS 13 13 0 0 0
M  V30 BEGIN ATOM
M  V30 1 N 0.751173 0.104100 2.247777 0
M  V30 2 C 0.988752 0.127630 0.827687 0 CFG=2
M  V30 3 C 0.250754 -0.964604 0.076410 0
M  V30 4 O 0.949942 -1.107482 -1.092833 0
M  V30 5 N 2.246782 -0.834255 -0.838749 0
M  V30 6 C 2.396020 -0.287463 0.487538 0
M  V30 7 O 3.521403 -0.257248 1.050645 0
M  V30 8 H 0.533287 1.007951 2.680060 0
M  V30 9 H 0.197977 -0.685353 2.593119 0
M  V30 10 H 0.758208 1.066344 0.329418 0
M  V30 11 H -0.791259 -0.647189 -0.143117 0
M  V30 12 H 0.247191 -1.935279 0.621281 0
M  V30 13 H 2.992436 -1.013447 -1.539088 0
M  V30 END ATOM
M  V30 BEGIN BOND
M  V30 1 1 1 2
M  V30 2 1 2 3
M  V30 3 1 3 4
M  V30 4 1 4 5
M  V30 5 1 5 6
M  V30 6 2 6 7
M  V30 7 1 6 2
M  V30 8 1 1 8
M  V30 9 1 1 9
M  V30 10 1 2 10 CFG=3
M  V30 11 1 3 11
M  V30 12 1 3 12
M  V30 13 1 5 13
M  V30 END BOND
M  V30 END CTAB
M  END
>  <Dataset>  (229) 
OralDrugs

>  <Ligand_Instance>  (229) 
nan

>  <PDB_ID>  (229) 
nan

>  <Standardized_SMILES>  (229) 
N[C@@H]1CONC1=O

>  <Name>  (229) 
Cycloserine

>  <Pocket>  (229) 
nan

>  <ATP_Site>  (229) 
nan

>  <Peripheral>  (229) 
nan

>  <Num_H_Atoms_ProtBoundConf>  (229) 
nan

>  <Num_Resolved_Atoms>  (229) 
nan

>  <Num_Not_Resolved_Atoms>  (229) 
nan

$$$$
CHEMBL61593
     RDKit          3D

  0  0  0  0  0  0  0  0  0  0999 V3000
M  V30 BEGIN CTAB
M  V30 COUNTS 40 43 0 0 0
M  V30 BEGIN ATOM
M  V30 1 N 2.187622 -6.327022 0.856662 0
M  V30 2 S 3.174414 -5.223329 -0.013386 0
M  V30 3 O 4.445244 -5.014867 0.760413 0
M  V30 4 O 3.395798 -5.743418 -1.388670 0
M  V30 5 C 2.269131 -3.705226 -0.092641 0
M  V30 6 C 1.018535 -3.511012 0.457651 0
M  V30 7 C 0.445091 -2.281862 0.314682 0
M  V30 8 C 1.074653 -1.236421 -0.358711 0
M  V30 9 C 2.338787 -1.472185 -0.901285 0
M  V30 10 C 2.937698 -2.709627 -0.768024 0
M  V30 11 Cl 4.524818 -2.881951 -1.492105 0
M  V30 12 N 0.428678 0.026752 -0.477626 0
M  V30 13 C -0.536875 0.378212 0.499311 0
M  V30 14 C -1.040184 1.773908 0.447419 0
M  V30 15 C 0.022423 2.832724 0.622827 0
M  V30 16 C -0.576399 3.829594 1.576539 0
M  V30 17 C -0.462844 3.223345 2.941960 0
M  V30 18 C -1.195248 2.103290 2.876169 0
M  V30 19 C -1.953893 2.081230 1.598749 0
M  V30 20 C -2.076298 3.597204 1.367639 0
M  V30 21 N -1.693186 -0.497890 0.409010 0
M  V30 22 S -1.147838 -2.042070 1.018191 0
M  V30 23 O -2.071670 -3.139083 0.574613 0
M  V30 24 O -0.990354 -1.943113 2.489783 0
M  V30 25 H 1.815020 -5.806890 1.682138 0
M  V30 26 H 1.353834 -6.564393 0.242817 0
M  V30 27 H 0.574202 -4.350944 0.968322 0
M  V30 28 H 2.827184 -0.658109 -1.424753 0
M  V30 29 H 0.712829 0.630765 -1.296750 0
M  V30 30 H -0.118800 0.201208 1.520893 0
M  V30 31 H -1.586004 2.009989 -0.488993 0
M  V30 32 H 0.929113 2.435007 1.132221 0
M  V30 33 H 0.273146 3.372468 -0.315517 0
M  V30 34 H -0.248908 4.843791 1.482581 0
M  V30 35 H 0.127622 3.718730 3.703278 0
M  V30 36 H -1.141549 1.395446 3.720338 0
M  V30 37 H -2.907136 1.565033 1.617704 0
M  V30 38 H -2.396103 3.803550 0.328066 0
M  V30 39 H -2.668677 4.083147 2.146077 0
M  V30 40 H -1.860397 -0.644428 -0.631764 0
M  V30 END ATOM
M  V30 BEGIN BOND
M  V30 1 1 1 2
M  V30 2 2 2 3
M  V30 3 2 2 4
M  V30 4 1 2 5
M  V30 5 2 5 6
M  V30 6 1 6 7
M  V30 7 2 7 8
M  V30 8 1 8 9
M  V30 9 2 9 10
M  V30 10 1 10 11
M  V30 11 1 8 12
M  V30 12 1 12 13
M  V30 13 1 13 14
M  V30 14 1 14 15
M  V30 15 1 15 16
M  V30 16 1 16 17
M  V30 17 2 17 18
M  V30 18 1 18 19
M  V30 19 1 19 20
M  V30 20 1 13 21
M  V30 21 1 21 22
M  V30 22 2 22 23
M  V30 23 2 22 24
M  V30 24 1 10 5
M  V30 25 1 19 14
M  V30 26 1 22 7
M  V30 27 1 20 16
M  V30 28 1 1 25
M  V30 29 1 1 26
M  V30 30 1 6 27
M  V30 31 1 9 28
M  V30 32 1 12 29
M  V30 33 1 13 30
M  V30 34 1 14 31
M  V30 35 1 15 32
M  V30 36 1 15 33
M  V30 37 1 16 34
M  V30 38 1 17 35
M  V30 39 1 18 36
M  V30 40 1 19 37
M  V30 41 1 20 38
M  V30 42 1 20 39
M  V30 43 1 21 40
M  V30 END BOND
M  V30 END CTAB
M  END
>  <Dataset>  (230) 
OralDrugs

>  <Ligand_Instance>  (230) 
nan

>  <PDB_ID>  (230) 
nan

>  <Standardized_SMILES>  (230) 
NS(=O)(=O)c1cc2c(cc1Cl)NC(C1CC3C=CC1C3)NS2(=O)=O

>  <Name>  (230) 
Cyclothiazide

>  <Pocket>  (230) 
nan

>  <ATP_Site>  (230) 
nan

>  <Peripheral>  (230) 
nan

>  <Num_H_Atoms_ProtBoundConf>  (230) 
nan

>  <Num_Resolved_Atoms>  (230) 
nan

>  <Num_Not_Resolved_Atoms>  (230) 
nan

$$$$
CHEMBL1201227
     RDKit          3D

  0  0  0  0  0  0  0  0  0  0999 V3000
M  V30 BEGIN CTAB
M  V30 COUNTS 50 52 0 0 0
M  V30 BEGIN ATOM
M  V30 1 O -0.916914 -2.198986 2.913845 0
M  V30 2 C -0.869610 -1.203578 1.855042 0
M  V30 3 C 0.294697 -1.839679 1.045180 0
M  V30 4 C 0.681382 -1.191774 -0.208437 0
M  V30 5 N 1.822447 -1.882830 -0.796391 0
M  V30 6 C 3.046383 -1.764813 -0.111255 0
M  V30 7 C 3.736530 -0.450348 -0.387740 0
M  V30 8 C 3.324825 0.200574 -1.672957 0
M  V30 9 C 2.845774 -0.753394 -2.730720 0
M  V30 10 C 1.922800 -1.810612 -2.198834 0
M  V30 11 C -0.455107 0.009231 2.492886 0
M  V30 12 C -1.153344 0.927364 3.238910 0
M  V30 13 C -0.660087 2.067605 3.831649 0
M  V30 14 C 0.665321 2.365051 3.693768 0
M  V30 15 C 1.465658 1.496931 2.955831 0
M  V30 16 C 0.894210 0.378993 2.396405 0
M  V30 17 C -2.057458 -1.341297 1.047770 0
M  V30 18 C -3.421321 -1.299290 1.728799 0
M  V30 19 C -4.297214 -1.446995 0.463553 0
M  V30 20 C -3.487753 -0.758369 -0.650749 0
M  V30 21 C -2.329164 -0.137128 0.117602 0
M  V30 22 H -0.251979 -1.934219 3.599173 0
M  V30 23 H 1.131694 -2.119795 1.719663 0
M  V30 24 H -0.152121 -2.845762 0.772752 0
M  V30 25 H -0.159225 -1.433976 -0.969360 0
M  V30 26 H 0.820967 -0.127584 -0.264378 0
M  V30 27 H 3.725175 -2.577068 -0.500788 0
M  V30 28 H 3.008725 -1.912500 0.969301 0
M  V30 29 H 4.845733 -0.618497 -0.309686 0
M  V30 30 H 3.494394 0.258336 0.423999 0
M  V30 31 H 4.220828 0.725909 -2.077568 0
M  V30 32 H 2.550948 1.004212 -1.529679 0
M  V30 33 H 3.730647 -1.155594 -3.265808 0
M  V30 34 H 2.267452 -0.152517 -3.478111 0
M  V30 35 H 2.349400 -2.793202 -2.561390 0
M  V30 36 H 0.903699 -1.787629 -2.681752 0
M  V30 37 H -2.181387 0.742201 3.388568 0
M  V30 38 H -1.292297 2.730635 4.400183 0
M  V30 39 H 1.038682 3.258724 4.158855 0
M  V30 40 H 2.496952 1.807494 2.897772 0
M  V30 41 H 1.659849 -0.174544 1.885078 0
M  V30 42 H -2.076252 -2.213726 0.387630 0
M  V30 43 H -3.718293 -0.368965 2.164989 0
M  V30 44 H -3.534878 -2.125229 2.419703 0
M  V30 45 H -5.271340 -0.978709 0.578422 0
M  V30 46 H -4.351946 -2.530618 0.250859 0
M  V30 47 H -4.078062 -0.025240 -1.195566 0
M  V30 48 H -3.018070 -1.544289 -1.295131 0
M  V30 49 H -1.506427 0.200766 -0.445957 0
M  V30 50 H -2.803400 0.683290 0.703334 0
M  V30 END ATOM
M  V30 BEGIN BOND
M  V30 1 1 1 2
M  V30 2 1 2 3
M  V30 3 1 3 4
M  V30 4 1 4 5
M  V30 5 1 5 6
M  V30 6 1 6 7
M  V30 7 1 7 8
M  V30 8 1 8 9
M  V30 9 1 9 10
M  V30 10 1 2 11
M  V30 11 2 11 12
M  V30 12 1 12 13
M  V30 13 2 13 14
M  V30 14 1 14 15
M  V30 15 2 15 16
M  V30 16 1 2 17
M  V30 17 1 17 18
M  V30 18 1 18 19
M  V30 19 1 19 20
M  V30 20 1 20 21
M  V30 21 1 10 5
M  V30 22 1 16 11
M  V30 23 1 21 17
M  V30 24 1 1 22
M  V30 25 1 3 23
M  V30 26 1 3 24
M  V30 27 1 4 25
M  V30 28 1 4 26
M  V30 29 1 6 27
M  V30 30 1 6 28
M  V30 31 1 7 29
M  V30 32 1 7 30
M  V30 33 1 8 31
M  V30 34 1 8 32
M  V30 35 1 9 33
M  V30 36 1 9 34
M  V30 37 1 10 35
M  V30 38 1 10 36
M  V30 39 1 12 37
M  V30 40 1 13 38
M  V30 41 1 14 39
M  V30 42 1 15 40
M  V30 43 1 16 41
M  V30 44 1 17 42
M  V30 45 1 18 43
M  V30 46 1 18 44
M  V30 47 1 19 45
M  V30 48 1 19 46
M  V30 49 1 20 47
M  V30 50 1 20 48
M  V30 51 1 21 49
M  V30 52 1 21 50
M  V30 END BOND
M  V30 END CTAB
M  END
>  <Dataset>  (231) 
OralDrugs

>  <Ligand_Instance>  (231) 
nan

>  <PDB_ID>  (231) 
nan

>  <Standardized_SMILES>  (231) 
OC(CCN1CCCCC1)(c1ccccc1)C1CCCC1

>  <Name>  (231) 
Cycrimine

>  <Pocket>  (231) 
nan

>  <ATP_Site>  (231) 
nan

>  <Peripheral>  (231) 
nan

>  <Num_H_Atoms_ProtBoundConf>  (231) 
nan

>  <Num_Resolved_Atoms>  (231) 
nan

>  <Num_Not_Resolved_Atoms>  (231) 
nan

$$$$
CHEMBL516
     RDKit          3D

  0  0  0  0  0  0  0  0  0  0999 V3000
M  V30 BEGIN CTAB
M  V30 COUNTS 43 46 0 0 0
M  V30 BEGIN ATOM
M  V30 1 C -1.273772 -3.469235 1.735934 0
M  V30 2 N 0.097904 -3.780015 1.686174 0
M  V30 3 C 0.735445 -3.755975 0.416867 0
M  V30 4 C 1.373009 -2.442167 0.032099 0
M  V30 5 C 1.018460 -1.308006 0.914656 0
M  V30 6 C 0.502974 -0.067345 0.659806 0
M  V30 7 C 0.218217 0.272964 -0.763899 0
M  V30 8 C -0.445284 -0.783397 -1.352142 0
M  V30 9 C -0.700014 -0.581700 -2.676506 0
M  V30 10 C -0.314065 0.580338 -3.314966 0
M  V30 11 C 0.356268 1.618517 -2.655506 0
M  V30 12 C 0.650002 1.488635 -1.316447 0
M  V30 13 C 1.325034 2.640963 -0.703705 0
M  V30 14 C 1.385058 2.948531 0.608532 0
M  V30 15 C 0.786686 2.196894 1.721131 0
M  V30 16 C 0.611339 2.910804 2.874004 0
M  V30 17 C 0.026849 2.300794 3.988827 0
M  V30 18 C -0.394799 0.964155 3.971522 0
M  V30 19 C -0.249597 0.190819 2.848201 0
M  V30 20 C 0.335893 0.873190 1.805245 0
M  V30 21 C 1.516399 -1.905888 2.186150 0
M  V30 22 C 0.877266 -3.144552 2.669176 0
M  V30 23 H -1.935653 -4.208108 1.226377 0
M  V30 24 H -1.666859 -3.474201 2.796631 0
M  V30 25 H -1.587636 -2.490262 1.322662 0
M  V30 26 H -0.080061 -4.042043 -0.322685 0
M  V30 27 H 1.441720 -4.609347 0.315282 0
M  V30 28 H 2.512324 -2.596915 0.181479 0
M  V30 29 H 1.249681 -2.383577 -1.031195 0
M  V30 30 H -0.711022 -1.610839 -0.700462 0
M  V30 31 H -1.221922 -1.392557 -3.183495 0
M  V30 32 H -0.541446 0.696489 -4.383509 0
M  V30 33 H 0.663509 2.526799 -3.131057 0
M  V30 34 H 1.808024 3.285076 -1.417186 0
M  V30 35 H 1.911408 3.825050 0.904643 0
M  V30 36 H 0.938958 3.936088 2.873947 0
M  V30 37 H -0.109855 2.884284 4.914720 0
M  V30 38 H -0.847807 0.486024 4.830898 0
M  V30 39 H -0.552394 -0.826516 2.680284 0
M  V30 40 H 1.641905 -1.196328 3.017519 0
M  V30 41 H 2.661765 -2.105661 2.082703 0
M  V30 42 H 1.690546 -3.868231 2.976626 0
M  V30 43 H 0.270509 -2.962929 3.599454 0
M  V30 END ATOM
M  V30 BEGIN BOND
M  V30 1 1 1 2
M  V30 2 1 2 3
M  V30 3 1 3 4
M  V30 4 1 4 5
M  V30 5 2 5 6 CFG=2
M  V30 6 1 6 7
M  V30 7 2 7 8
M  V30 8 1 8 9
M  V30 9 2 9 10
M  V30 10 1 10 11
M  V30 11 2 11 12
M  V30 12 1 12 13
M  V30 13 2 13 14
M  V30 14 1 14 15
M  V30 15 2 15 16
M  V30 16 1 16 17
M  V30 17 2 17 18
M  V30 18 1 18 19
M  V30 19 2 19 20
M  V30 20 1 5 21
M  V30 21 1 21 22
M  V30 22 1 22 2
M  V30 23 1 20 6
M  V30 24 1 12 7
M  V30 25 1 20 15
M  V30 26 1 1 23
M  V30 27 1 1 24
M  V30 28 1 1 25
M  V30 29 1 3 26
M  V30 30 1 3 27
M  V30 31 1 4 28
M  V30 32 1 4 29
M  V30 33 1 8 30
M  V30 34 1 9 31
M  V30 35 1 10 32
M  V30 36 1 11 33
M  V30 37 1 13 34
M  V30 38 1 14 35
M  V30 39 1 16 36
M  V30 40 1 17 37
M  V30 41 1 18 38
M  V30 42 1 19 39
M  V30 43 1 21 40
M  V30 44 1 21 41
M  V30 45 1 22 42
M  V30 46 1 22 43
M  V30 END BOND
M  V30 END CTAB
M  END
>  <Dataset>  (232) 
OralDrugs

>  <Ligand_Instance>  (232) 
nan

>  <PDB_ID>  (232) 
nan

>  <Standardized_SMILES>  (232) 
CN1CCC(=C2c3ccccc3C=Cc3ccccc32)CC1

>  <Name>  (232) 
Cyproheptadine

>  <Pocket>  (232) 
nan

>  <ATP_Site>  (232) 
nan

>  <Peripheral>  (232) 
nan

>  <Num_H_Atoms_ProtBoundConf>  (232) 
nan

>  <Num_Resolved_Atoms>  (232) 
nan

>  <Num_Not_Resolved_Atoms>  (232) 
nan

$$$$
CHEMBL139835
     RDKit          3D

  0  0  0  0  0  0  0  0  0  0999 V3000
M  V30 BEGIN CTAB
M  V30 COUNTS 58 62 0 0 0
M  V30 BEGIN ATOM
M  V30 1 C -5.612657 -1.470604 -0.977210 0
M  V30 2 C -4.226647 -1.750142 -1.411555 0
M  V30 3 O -3.918805 -1.717978 -2.629231 0
M  V30 4 O -3.336890 -2.038041 -0.400333 0
M  V30 5 C -1.980901 -2.326077 -0.640478 0 CFG=2
M  V30 6 C -1.980963 -3.541068 -1.536657 0
M  V30 7 C -3.078529 -4.400269 -2.084467 0
M  V30 8 O -0.884403 -3.967001 -1.935084 0
M  V30 9 C -1.332332 -2.891067 0.639993 0
M  V30 10 C 0.105783 -2.463700 0.422717 0
M  V30 11 C -0.172950 -1.056792 0.064575 0 CFG=1
M  V30 12 C 0.921706 -0.204138 -0.388573 0 CFG=2
M  V30 13 C 2.118775 -0.351271 0.449348 0
M  V30 14 C 2.820964 0.749717 0.757318 0
M  V30 15 Cl 4.258629 0.544000 1.767930 0
M  V30 16 C 2.465768 2.112864 0.306265 0
M  V30 17 C 3.178947 3.134632 0.791435 0
M  V30 18 C 2.815349 4.469849 0.336852 0
M  V30 19 O 3.735718 5.347580 0.262919 0
M  V30 20 C 1.396919 4.702822 -0.005255 0 CFG=2
M  V30 21 C 0.286213 4.083416 0.742015 0
M  V30 22 C 0.679228 3.586674 -0.623459 0 CFG=2
M  V30 23 C 1.330038 2.255357 -0.664568 0 CFG=1
M  V30 24 C 1.878417 2.033983 -2.043350 0
M  V30 25 C 0.327359 1.207384 -0.248451 0 CFG=1
M  V30 26 C -1.018313 1.333051 -0.830117 0
M  V30 27 C -1.795557 0.142471 -1.201756 0
M  V30 28 C -1.156981 -1.196605 -1.105769 0 CFG=2
M  V30 29 C -0.417198 -1.453611 -2.396553 0
M  V30 30 H -5.977344 -2.369767 -0.439571 0
M  V30 31 H -5.631807 -0.579006 -0.331275 0
M  V30 32 H -6.258891 -1.357519 -1.869305 0
M  V30 33 H -2.793095 -5.487472 -1.948551 0
M  V30 34 H -3.156081 -4.291974 -3.184168 0
M  V30 35 H -4.054751 -4.231246 -1.586126 0
M  V30 36 H -1.734867 -2.281750 1.490856 0
M  V30 37 H -1.484822 -3.955858 0.767181 0
M  V30 38 H 0.559852 -3.002228 -0.408997 0
M  V30 39 H 0.701338 -2.578948 1.359875 0
M  V30 40 H -0.736940 -0.606458 0.908982 0
M  V30 41 H 1.237907 -0.302841 -1.430136 0
M  V30 42 H 2.453360 -1.308764 0.825241 0
M  V30 43 H 3.986281 2.957881 1.488866 0
M  V30 44 H 1.194285 5.722706 -0.391390 0
M  V30 45 H -0.686000 4.613355 0.798345 0
M  V30 46 H 0.525778 3.482440 1.626178 0
M  V30 47 H 0.065262 3.821862 -1.514521 0
M  V30 48 H 1.121441 1.772335 -2.794895 0
M  V30 49 H 2.292140 3.028509 -2.378208 0
M  V30 50 H 2.696857 1.315366 -2.116661 0
M  V30 51 H 0.266105 1.319702 0.869390 0
M  V30 52 H -0.922957 2.057083 -1.695344 0
M  V30 53 H -1.655995 1.939714 -0.115908 0
M  V30 54 H -2.104775 0.267303 -2.283306 0
M  V30 55 H -2.773293 0.071306 -0.648671 0
M  V30 56 H -0.182321 -0.483120 -2.880260 0
M  V30 57 H 0.512160 -2.009672 -2.293524 0
M  V30 58 H -1.152718 -1.943194 -3.082851 0
M  V30 END ATOM
M  V30 BEGIN BOND
M  V30 1 1 1 2
M  V30 2 2 2 3
M  V30 3 1 2 4
M  V30 4 1 5 4 CFG=1
M  V30 5 1 5 6
M  V30 6 1 6 7
M  V30 7 2 6 8
M  V30 8 1 5 9
M  V30 9 1 9 10
M  V30 10 1 10 11
M  V30 11 1 11 12
M  V30 12 1 12 13
M  V30 13 2 13 14
M  V30 14 1 14 15
M  V30 15 1 14 16
M  V30 16 2 16 17
M  V30 17 1 17 18
M  V30 18 2 18 19
M  V30 19 1 18 20
M  V30 20 1 20 21
M  V30 21 1 21 22
M  V30 22 1 22 23
M  V30 23 1 23 24 CFG=3
M  V30 24 1 23 25
M  V30 25 1 25 26
M  V30 26 1 26 27
M  V30 27 1 27 28
M  V30 28 1 28 29 CFG=3
M  V30 29 1 28 5
M  V30 30 1 28 11
M  V30 31 1 25 12
M  V30 32 1 23 16
M  V30 33 1 22 20
M  V30 34 1 1 30
M  V30 35 1 1 31
M  V30 36 1 1 32
M  V30 37 1 7 33
M  V30 38 1 7 34
M  V30 39 1 7 35
M  V30 40 1 9 36
M  V30 41 1 9 37
M  V30 42 1 10 38
M  V30 43 1 10 39
M  V30 44 1 11 40 CFG=1
M  V30 45 1 12 41 CFG=3
M  V30 46 1 13 42
M  V30 47 1 17 43
M  V30 48 1 20 44 CFG=3
M  V30 49 1 21 45
M  V30 50 1 21 46
M  V30 51 1 22 47 CFG=3
M  V30 52 1 24 48
M  V30 53 1 24 49
M  V30 54 1 24 50
M  V30 55 1 25 51 CFG=1
M  V30 56 1 26 52
M  V30 57 1 26 53
M  V30 58 1 27 54
M  V30 59 1 27 55
M  V30 60 1 29 56
M  V30 61 1 29 57
M  V30 62 1 29 58
M  V30 END BOND
M  V30 END CTAB
M  END
>  <Dataset>  (233) 
OralDrugs

>  <Ligand_Instance>  (233) 
nan

>  <PDB_ID>  (233) 
nan

>  <Standardized_SMILES>  (233) 
CC(=O)O[C@]1(C(C)=O)CC[C@H]2[C@@H]3C=C(Cl)C4=CC(=O)[C@@H]5C[C@@H]5[C@]4(C)[C@H]3CC[C@@]21C

>  <Name>  (233) 
Cyproterone Acetate

>  <Pocket>  (233) 
nan

>  <ATP_Site>  (233) 
nan

>  <Peripheral>  (233) 
nan

>  <Num_H_Atoms_ProtBoundConf>  (233) 
nan

>  <Num_Resolved_Atoms>  (233) 
nan

>  <Num_Not_Resolved_Atoms>  (233) 
nan

$$$$
CHEMBL602
     RDKit          3D

  0  0  0  0  0  0  0  0  0  0999 V3000
M  V30 BEGIN CTAB
M  V30 COUNTS 11 10 0 0 0
M  V30 BEGIN ATOM
M  V30 1 N 1.744410 -0.376262 2.123686 0
M  V30 2 C 2.001170 -1.524227 1.290764 0
M  V30 3 C 1.142562 -1.392260 0.044776 0
M  V30 4 S 1.617058 0.141555 -0.790545 0
M  V30 5 H 2.610776 -0.129520 2.645104 0
M  V30 6 H 0.990730 -0.560952 2.805258 0
M  V30 7 H 1.740849 -2.459480 1.855885 0
M  V30 8 H 3.071257 -1.638528 1.035226 0
M  V30 9 H 0.076205 -1.449525 0.267787 0
M  V30 10 H 1.398969 -2.285978 -0.592278 0
M  V30 11 H 1.314959 0.125146 -2.147999 0
M  V30 END ATOM
M  V30 BEGIN BOND
M  V30 1 1 1 2
M  V30 2 1 2 3
M  V30 3 1 3 4
M  V30 4 1 1 5
M  V30 5 1 1 6
M  V30 6 1 2 7
M  V30 7 1 2 8
M  V30 8 1 3 9
M  V30 9 1 3 10
M  V30 10 1 4 11
M  V30 END BOND
M  V30 END CTAB
M  END
>  <Dataset>  (234) 
OralDrugs

>  <Ligand_Instance>  (234) 
nan

>  <PDB_ID>  (234) 
nan

>  <Standardized_SMILES>  (234) 
NCCS

>  <Name>  (234) 
Cysteamine

>  <Pocket>  (234) 
nan

>  <ATP_Site>  (234) 
nan

>  <Peripheral>  (234) 
nan

>  <Num_H_Atoms_ProtBoundConf>  (234) 
nan

>  <Num_Resolved_Atoms>  (234) 
nan

>  <Num_Not_Resolved_Atoms>  (234) 
nan

$$$$
CHEMBL2062263
     RDKit          3D

  0  0  0  0  0  0  0  0  0  0999 V3000
M  V30 BEGIN CTAB
M  V30 COUNTS 16 15 0 0 0
M  V30 BEGIN ATOM
M  V30 1 O 0.533750 -1.652259 2.060261 0
M  V30 2 C 0.022500 -0.689297 1.405896 0
M  V30 3 O -1.018621 -1.205429 0.649597 0
M  V30 4 C 0.589639 0.666126 1.567977 0
M  V30 5 O -0.059041 1.626094 0.798579 0
M  V30 6 C 2.089741 0.674325 1.310600 0
M  V30 7 O 2.653059 -0.320344 2.124690 0
M  V30 8 C 2.397284 0.311350 -0.095096 0
M  V30 9 O 1.867128 1.239619 -0.781824 0
M  V30 10 O 3.030527 -0.644615 -0.845444 0
M  V30 11 H -0.933079 -2.050584 0.095278 0
M  V30 12 H 0.435301 0.950323 2.626686 0
M  V30 13 H 0.161027 2.517324 1.127019 0
M  V30 14 H 2.545948 1.632029 1.622216 0
M  V30 15 H 2.780932 -1.158987 1.630978 0
M  V30 16 H 3.611815 -0.359895 -1.625863 0
M  V30 END ATOM
M  V30 BEGIN BOND
M  V30 1 2 1 2
M  V30 2 1 2 3
M  V30 3 1 2 4
M  V30 4 1 4 5
M  V30 5 1 4 6
M  V30 6 1 6 7
M  V30 7 1 6 8
M  V30 8 2 8 9
M  V30 9 1 8 10
M  V30 10 1 3 11
M  V30 11 1 4 12
M  V30 12 1 5 13
M  V30 13 1 6 14
M  V30 14 1 7 15
M  V30 15 1 10 16
M  V30 END BOND
M  V30 END CTAB
M  END
>  <Dataset>  (235) 
OralDrugs

>  <Ligand_Instance>  (235) 
nan

>  <PDB_ID>  (235) 
nan

>  <Standardized_SMILES>  (235) 
O=C(O)C(O)C(O)C(=O)O

>  <Name>  (235) 
Cysteamine Bitartrate

>  <Pocket>  (235) 
nan

>  <ATP_Site>  (235) 
nan

>  <Peripheral>  (235) 
nan

>  <Num_H_Atoms_ProtBoundConf>  (235) 
nan

>  <Num_Resolved_Atoms>  (235) 
nan

>  <Num_Not_Resolved_Atoms>  (235) 
nan

$$$$
CHEMBL2028663
     RDKit          3D

  0  0  0  0  0  0  0  0  0  0999 V3000
M  V30 BEGIN CTAB
M  V30 COUNTS 55 58 0 0 0
M  V30 BEGIN ATOM
M  V30 1 C 4.760634 -2.763910 1.261696 0
M  V30 2 C 4.749889 -1.348490 0.784962 0
M  V30 3 C 4.836032 -0.376641 1.939035 0
M  V30 4 C 5.885971 -1.161015 -0.196316 0
M  V30 5 C 3.488531 -0.986352 0.072572 0
M  V30 6 N 2.419056 -0.526362 0.397634 0
M  V30 7 C 1.428888 -0.289468 -0.442842 0
M  V30 8 C 0.188497 0.276121 0.139876 0
M  V30 9 C 0.220349 1.510797 0.751756 0
M  V30 10 C -0.935783 2.038287 1.297827 0
M  V30 11 C -2.069467 1.263181 1.184656 0
M  V30 12 C -2.151955 0.024791 0.583390 0
M  V30 13 N -3.357932 -0.714077 0.496672 0
M  V30 14 S -4.775718 -0.636644 1.489430 0
M  V30 15 O -5.863325 -1.494670 0.942252 0
M  V30 16 O -5.319538 0.785675 1.470643 0
M  V30 17 C -4.476179 -1.048470 3.144399 0
M  V30 18 C -4.575871 -2.409103 3.420919 0
M  V30 19 F -4.877406 -3.349685 2.475672 0
M  V30 20 C -4.382640 -2.946795 4.667190 0
M  V30 21 C -4.069877 -2.133637 5.739349 0
M  V30 22 C -3.967590 -0.781774 5.480886 0
M  V30 23 C -4.166427 -0.264727 4.219762 0
M  V30 24 F -4.081370 1.055650 3.933247 0
M  V30 25 C -0.965660 -0.469751 0.046232 0
M  V30 26 F -1.021733 -1.674123 -0.544784 0
M  V30 27 C 1.619311 -0.583628 -1.783658 0
M  V30 28 C 0.698114 -0.412251 -2.864686 0
M  V30 29 C 0.328635 -1.565919 -3.543108 0
M  V30 30 C -0.562516 -1.541991 -4.617311 0
M  V30 31 N -1.044699 -0.334408 -4.959604 0
M  V30 32 C -0.696893 0.791590 -4.313146 0
M  V30 33 N -1.181981 2.089033 -4.642258 0
M  V30 34 N 0.159804 0.727737 -3.288405 0
M  V30 35 S 3.328482 -1.226010 -1.742755 0
M  V30 36 H 5.825353 -3.069659 1.411458 0
M  V30 37 H 4.384266 -3.425353 0.442391 0
M  V30 38 H 4.148671 -2.948661 2.162105 0
M  V30 39 H 4.200547 0.523030 1.806511 0
M  V30 40 H 4.454845 -0.870648 2.860406 0
M  V30 41 H 5.876041 -0.103445 2.117756 0
M  V30 42 H 6.827735 -1.629422 0.154267 0
M  V30 43 H 5.593410 -1.710370 -1.127647 0
M  V30 44 H 5.999585 -0.108960 -0.517301 0
M  V30 45 H 1.136184 2.079211 0.813939 0
M  V30 46 H -0.935067 2.999110 1.780459 0
M  V30 47 H -2.952125 1.707641 1.613794 0
M  V30 48 H -3.387309 -1.406360 -0.287776 0
M  V30 49 H -4.456162 -4.000384 4.899933 0
M  V30 50 H -3.891597 -2.402754 6.761747 0
M  V30 51 H -3.728961 -0.045106 6.234036 0
M  V30 52 H 0.687154 -2.578277 -3.311656 0
M  V30 53 H -0.859921 -2.428689 -5.154346 0
M  V30 54 H -0.472433 2.496679 -5.316648 0
M  V30 55 H -2.072766 2.458519 -4.237363 0
M  V30 END ATOM
M  V30 BEGIN BOND
M  V30 1 1 1 2
M  V30 2 1 2 3
M  V30 3 1 2 4
M  V30 4 1 2 5
M  V30 5 2 5 6
M  V30 6 1 6 7
M  V30 7 1 7 8
M  V30 8 2 8 9
M  V30 9 1 9 10
M  V30 10 2 10 11
M  V30 11 1 11 12
M  V30 12 1 12 13
M  V30 13 1 13 14
M  V30 14 2 14 15
M  V30 15 2 14 16
M  V30 16 1 14 17
M  V30 17 2 17 18
M  V30 18 1 18 19
M  V30 19 1 18 20
M  V30 20 2 20 21
M  V30 21 1 21 22
M  V30 22 2 22 23
M  V30 23 1 23 24
M  V30 24 2 12 25
M  V30 25 1 25 26
M  V30 26 2 7 27
M  V30 27 1 27 28
M  V30 28 2 28 29
M  V30 29 1 29 30
M  V30 30 2 30 31
M  V30 31 1 31 32
M  V30 32 1 32 33
M  V30 33 2 32 34
M  V30 34 1 27 35
M  V30 35 1 35 5
M  V30 36 1 25 8
M  V30 37 1 34 28
M  V30 38 1 23 17
M  V30 39 1 1 36
M  V30 40 1 1 37
M  V30 41 1 1 38
M  V30 42 1 3 39
M  V30 43 1 3 40
M  V30 44 1 3 41
M  V30 45 1 4 42
M  V30 46 1 4 43
M  V30 47 1 4 44
M  V30 48 1 9 45
M  V30 49 1 10 46
M  V30 50 1 11 47
M  V30 51 1 13 48
M  V30 52 1 20 49
M  V30 53 1 21 50
M  V30 54 1 22 51
M  V30 55 1 29 52
M  V30 56 1 30 53
M  V30 57 1 33 54
M  V30 58 1 33 55
M  V30 END BOND
M  V30 END CTAB
M  END
>  <Dataset>  (236) 
OralDrugs

>  <Ligand_Instance>  (236) 
nan

>  <PDB_ID>  (236) 
nan

>  <Standardized_SMILES>  (236) 
CC(C)(C)c1nc(-c2cccc(NS(=O)(=O)c3c(F)cccc3F)c2F)c(-c2ccnc(N)n2)s1

>  <Name>  (236) 
Dabrafenib

>  <Pocket>  (236) 
nan

>  <ATP_Site>  (236) 
nan

>  <Peripheral>  (236) 
nan

>  <Num_H_Atoms_ProtBoundConf>  (236) 
nan

>  <Num_Resolved_Atoms>  (236) 
nan

>  <Num_Not_Resolved_Atoms>  (236) 
nan

$$$$
CHEMBL2023898
     RDKit          3D

  0  0  0  0  0  0  0  0  0  0999 V3000
M  V30 BEGIN CTAB
M  V30 COUNTS 104 109 0 0 0
M  V30 BEGIN ATOM
M  V30 1 C -1.083019 5.675273 -0.578855 0
M  V30 2 O -2.480911 5.891847 -0.664548 0
M  V30 3 C -3.392135 4.870816 -0.329512 0
M  V30 4 O -2.712932 3.861079 0.018360 0
M  V30 5 N -4.810961 4.929229 -0.364488 0
M  V30 6 C -5.554325 3.746529 0.026349 0 CFG=2
M  V30 7 C -6.221744 3.083672 -1.131636 0
M  V30 8 O -6.810432 2.071328 -0.651867 0
M  V30 9 N -6.220252 3.470317 -2.491269 0
M  V30 10 C -5.620241 4.604643 -3.174740 0
M  V30 11 C -5.947709 4.420356 -4.638384 0
M  V30 12 C -6.115049 2.919460 -4.725541 0
M  V30 13 C -6.911106 2.621951 -3.473014 0 CFG=1
M  V30 14 C -6.786928 1.188337 -3.082548 0
M  V30 15 N -7.587968 0.102169 -3.027327 0
M  V30 16 C -6.899872 -0.934968 -2.572325 0
M  V30 17 C -5.608277 -0.520774 -2.320226 0
M  V30 18 C -4.510284 -1.334035 -1.797218 0
M  V30 19 C -3.280008 -0.753538 -1.576885 0
M  V30 20 C -2.272841 -1.557915 -1.077540 0
M  V30 21 C -2.405057 -2.916672 -0.778223 0
M  V30 22 C -1.206002 -3.562133 -0.259142 0
M  V30 23 C 0.037038 -3.122296 -0.683973 0
M  V30 24 C 1.174746 -3.751138 -0.165307 0
M  V30 25 C 1.133307 -4.782795 0.743057 0
M  V30 26 C 2.386115 -5.377734 1.238799 0
M  V30 27 C 2.523765 -6.421506 2.128130 0
M  V30 28 N 3.842450 -6.632241 2.291451 0
M  V30 29 C 4.522376 -5.749217 1.529034 0
M  V30 30 C 5.953441 -5.542930 1.286000 0 CFG=2
M  V30 31 C 6.876983 -6.369351 2.150309 0
M  V30 32 C 8.200546 -5.633101 1.839849 0
M  V30 33 C 7.743939 -4.441962 0.992767 0
M  V30 34 N 6.416216 -4.209751 1.608979 0
M  V30 35 C 5.809873 -3.113433 2.256306 0
M  V30 36 O 4.673904 -3.499833 2.707049 0
M  V30 37 C 5.911166 -1.693011 2.653109 0 CFG=1
M  V30 38 N 6.872878 -0.885490 1.992907 0
M  V30 39 C 7.476122 -0.812696 0.716996 0
M  V30 40 O 7.164709 -1.611103 -0.195364 0
M  V30 41 O 8.438448 0.084601 0.293657 0
M  V30 42 C 8.879348 -0.066493 -1.066116 0
M  V30 43 C 4.637010 -1.010419 2.980646 0
M  V30 44 C 3.909057 -1.647080 4.144915 0
M  V30 45 C 3.646780 -1.007852 1.835337 0
M  V30 46 N 3.616783 -4.980557 0.884054 0
M  V30 47 C -0.093310 -5.218291 1.162659 0
M  V30 48 C -1.217658 -4.596760 0.650466 0
M  V30 49 C -3.648351 -3.463833 -1.011173 0
M  V30 50 C -4.665982 -2.670777 -1.510619 0
M  V30 51 N -5.577920 0.780903 -2.644006 0
M  V30 52 C -6.467367 4.028225 1.173492 0
M  V30 53 C -7.499254 5.087085 0.900466 0
M  V30 54 C -7.160365 2.801539 1.691334 0
M  V30 55 H -0.691112 5.401543 -1.602741 0
M  V30 56 H -0.625123 6.637770 -0.318562 0
M  V30 57 H -0.800972 4.844718 0.069026 0
M  V30 58 H -5.081257 5.874046 -0.683319 0
M  V30 59 H -4.786062 3.018976 0.367100 0
M  V30 60 H -6.152521 5.499371 -2.774954 0
M  V30 61 H -4.521511 4.651033 -3.073721 0
M  V30 62 H -5.125713 4.793319 -5.280350 0
M  V30 63 H -6.922465 4.907972 -4.846928 0
M  V30 64 H -5.089025 2.469041 -4.657798 0
M  V30 65 H -6.652673 2.611293 -5.642725 0
M  V30 66 H -7.933729 2.960801 -3.626308 0
M  V30 67 H -7.300168 -1.938252 -2.426820 0
M  V30 68 H -3.112067 0.285229 -1.785285 0
M  V30 69 H -1.322230 -1.027840 -0.923971 0
M  V30 70 H 0.163308 -2.305261 -1.409641 0
M  V30 71 H 2.121644 -3.347879 -0.549799 0
M  V30 72 H 1.731766 -6.978180 2.613277 0
M  V30 73 H 6.220011 -5.805184 0.224441 0
M  V30 74 H 6.993533 -7.413551 1.817034 0
M  V30 75 H 6.621651 -6.327725 3.210444 0
M  V30 76 H 8.666415 -5.240705 2.749723 0
M  V30 77 H 8.896040 -6.253148 1.273126 0
M  V30 78 H 8.422243 -3.600353 1.117020 0
M  V30 79 H 7.628915 -4.784015 -0.040099 0
M  V30 80 H 6.416671 -1.854877 3.708529 0
M  V30 81 H 7.288955 -0.089355 2.575628 0
M  V30 82 H 8.011138 -0.347950 -1.717085 0
M  V30 83 H 9.670155 -0.842199 -1.051382 0
M  V30 84 H 9.260253 0.879858 -1.463397 0
M  V30 85 H 4.897669 0.029762 3.294388 0
M  V30 86 H 3.605700 -0.879943 4.897208 0
M  V30 87 H 4.644816 -2.294889 4.675885 0
M  V30 88 H 3.070120 -2.273459 3.823495 0
M  V30 89 H 3.932798 -1.693503 1.025480 0
M  V30 90 H 2.625925 -1.301422 2.151729 0
M  V30 91 H 3.528604 0.044595 1.466386 0
M  V30 92 H 3.792693 -4.185630 0.202017 0
M  V30 93 H -0.172406 -6.019277 1.869377 0
M  V30 94 H -2.194124 -4.938376 0.980607 0
M  V30 95 H -3.723523 -4.506248 -0.773916 0
M  V30 96 H -5.631605 -3.136009 -1.681965 0
M  V30 97 H -4.682229 1.315954 -2.533273 0
M  V30 98 H -5.793557 4.369636 2.015340 0
M  V30 99 H -7.083885 5.982581 0.392194 0
M  V30 100 H -8.409531 4.699185 0.427628 0
M  V30 101 H -7.826915 5.457638 1.913401 0
M  V30 102 H -6.533884 1.883592 1.654928 0
M  V30 103 H -8.172383 2.661898 1.260240 0
M  V30 104 H -7.348810 2.957045 2.793711 0
M  V30 END ATOM
M  V30 BEGIN BOND
M  V30 1 1 1 2
M  V30 2 1 2 3
M  V30 3 2 3 4
M  V30 4 1 3 5
M  V30 5 1 5 6
M  V30 6 1 6 7
M  V30 7 2 7 8
M  V30 8 1 7 9
M  V30 9 1 9 10
M  V30 10 1 10 11
M  V30 11 1 11 12
M  V30 12 1 12 13
M  V30 13 1 13 14
M  V30 14 2 14 15
M  V30 15 1 15 16
M  V30 16 2 16 17
M  V30 17 1 17 18
M  V30 18 2 18 19
M  V30 19 1 19 20
M  V30 20 2 20 21
M  V30 21 1 21 22
M  V30 22 2 22 23
M  V30 23 1 23 24
M  V30 24 2 24 25
M  V30 25 1 25 26
M  V30 26 2 26 27
M  V30 27 1 27 28
M  V30 28 2 28 29
M  V30 29 1 29 30
M  V30 30 1 30 31
M  V30 31 1 31 32
M  V30 32 1 32 33
M  V30 33 1 33 34
M  V30 34 1 34 35
M  V30 35 2 35 36
M  V30 36 1 35 37
M  V30 37 1 37 38
M  V30 38 1 38 39
M  V30 39 2 39 40
M  V30 40 1 39 41
M  V30 41 1 41 42
M  V30 42 1 37 43
M  V30 43 1 43 44
M  V30 44 1 43 45
M  V30 45 1 29 46
M  V30 46 1 25 47
M  V30 47 2 47 48
M  V30 48 1 21 49
M  V30 49 2 49 50
M  V30 50 1 17 51
M  V30 51 1 6 52
M  V30 52 1 52 53
M  V30 53 1 52 54
M  V30 54 1 13 9
M  V30 55 1 51 14
M  V30 56 1 50 18
M  V30 57 1 48 22
M  V30 58 1 46 26
M  V30 59 1 34 30
M  V30 60 1 1 55
M  V30 61 1 1 56
M  V30 62 1 1 57
M  V30 63 1 5 58
M  V30 64 1 6 59 CFG=1
M  V30 65 1 10 60
M  V30 66 1 10 61
M  V30 67 1 11 62
M  V30 68 1 11 63
M  V30 69 1 12 64
M  V30 70 1 12 65
M  V30 71 1 13 66 CFG=3
M  V30 72 1 16 67
M  V30 73 1 19 68
M  V30 74 1 20 69
M  V30 75 1 23 70
M  V30 76 1 24 71
M  V30 77 1 27 72
M  V30 78 1 30 73 CFG=3
M  V30 79 1 31 74
M  V30 80 1 31 75
M  V30 81 1 32 76
M  V30 82 1 32 77
M  V30 83 1 33 78
M  V30 84 1 33 79
M  V30 85 1 37 80 CFG=1
M  V30 86 1 38 81
M  V30 87 1 42 82
M  V30 88 1 42 83
M  V30 89 1 42 84
M  V30 90 1 43 85
M  V30 91 1 44 86
M  V30 92 1 44 87
M  V30 93 1 44 88
M  V30 94 1 45 89
M  V30 95 1 45 90
M  V30 96 1 45 91
M  V30 97 1 46 92
M  V30 98 1 47 93
M  V30 99 1 48 94
M  V30 100 1 49 95
M  V30 101 1 50 96
M  V30 102 1 51 97
M  V30 103 1 52 98
M  V30 104 1 53 99
M  V30 105 1 53 100
M  V30 106 1 53 101
M  V30 107 1 54 102
M  V30 108 1 54 103
M  V30 109 1 54 104
M  V30 END BOND
M  V30 END CTAB
M  END
>  <Dataset>  (237) 
OralDrugs

>  <Ligand_Instance>  (237) 
nan

>  <PDB_ID>  (237) 
nan

>  <Standardized_SMILES>  (237) 
COC(=O)N[C@H](C(=O)N1CCC[C@H]1c1ncc(-c2ccc(-c3ccc(-c4cnc([C@@H]5CCCN5C(=O)[C@@H](NC(=O)OC)C(C)C)[nH]4)cc3)cc2)[nH]1)C(C)C

>  <Name>  (237) 
Daclatasvir

>  <Pocket>  (237) 
nan

>  <ATP_Site>  (237) 
nan

>  <Peripheral>  (237) 
nan

>  <Num_H_Atoms_ProtBoundConf>  (237) 
nan

>  <Num_Resolved_Atoms>  (237) 
nan

>  <Num_Not_Resolved_Atoms>  (237) 
nan

$$$$
CHEMBL2105719
     RDKit          3D

  0  0  0  0  0  0  0  0  0  0999 V3000
M  V30 BEGIN CTAB
M  V30 COUNTS 58 61 0 0 0
M  V30 BEGIN ATOM
M  V30 1 C 1.099246 -4.673393 4.909477 0
M  V30 2 O 0.792553 -3.851348 3.815074 0
M  V30 3 C 1.548886 -2.810917 3.367338 0
M  V30 4 C 2.707542 -2.570729 4.072809 0
M  V30 5 C 3.501530 -1.528552 3.657439 0
M  V30 6 N 4.640417 -1.239257 4.278617 0
M  V30 7 C 5.454981 -0.222786 3.887628 0
M  V30 8 N 5.057357 0.495872 2.825764 0
M  V30 9 C 3.914560 0.239466 2.168661 0
M  V30 10 N 3.604671 1.061178 1.057145 0
M  V30 11 C 2.994582 2.345277 1.218063 0
M  V30 12 C 2.577115 3.126575 0.167829 0
M  V30 13 C 2.010057 4.369604 0.460309 0
M  V30 14 C 1.858450 4.831679 1.762007 0
M  V30 15 F 1.305943 6.040899 2.014012 0
M  V30 16 C 2.276521 4.049656 2.824103 0
M  V30 17 Cl 2.124221 4.562543 4.503066 0
M  V30 18 C 2.831958 2.826738 2.493329 0
M  V30 19 C 3.115562 -0.780971 2.576222 0
M  V30 20 C 1.951597 -1.054417 1.901296 0
M  V30 21 C 1.126837 -2.089682 2.282557 0
M  V30 22 N -0.042322 -2.264675 1.518456 0
M  V30 23 C -1.037461 -3.222999 1.401541 0
M  V30 24 O -0.923822 -4.231045 2.135835 0
M  V30 25 C -2.199915 -3.204314 0.532509 0
M  V30 26 C -2.576429 -2.265480 -0.323565 0
M  V30 27 C -3.701659 -2.115838 -1.247170 0
M  V30 28 N -3.363414 -1.981116 -2.627565 0
M  V30 29 C -2.705140 -0.785139 -3.013189 0
M  V30 30 C -3.518430 0.219761 -3.756964 0
M  V30 31 C -4.164919 -0.385222 -4.955459 0
M  V30 32 C -4.194644 -1.887915 -4.928211 0
M  V30 33 C -4.413615 -2.411699 -3.514848 0
M  V30 34 H 1.003712 -4.174365 5.884925 0
M  V30 35 H 0.512056 -5.615531 4.854624 0
M  V30 36 H 2.161412 -4.982075 4.807066 0
M  V30 37 H 3.017555 -3.144779 4.915658 0
M  V30 38 H 6.348084 -0.077977 4.456946 0
M  V30 39 H 3.815227 0.745627 0.065008 0
M  V30 40 H 2.696231 2.764413 -0.844347 0
M  V30 41 H 1.684265 4.974326 -0.393992 0
M  V30 42 H 3.152345 2.229418 3.340604 0
M  V30 43 H 1.725929 -0.400921 1.046858 0
M  V30 44 H -0.304649 -1.499928 0.825929 0
M  V30 45 H -2.888867 -4.017310 0.488506 0
M  V30 46 H -1.918097 -1.382337 -0.382016 0
M  V30 47 H -4.343902 -1.238448 -0.951988 0
M  V30 48 H -4.385697 -2.991855 -1.109237 0
M  V30 49 H -2.192582 -0.360248 -2.127505 0
M  V30 50 H -1.869029 -1.086119 -3.712077 0
M  V30 51 H -2.797954 1.042026 -4.045279 0
M  V30 52 H -4.291338 0.725686 -3.160852 0
M  V30 53 H -3.667816 -0.047176 -5.874530 0
M  V30 54 H -5.234432 -0.033597 -5.059737 0
M  V30 55 H -5.066045 -2.226777 -5.519026 0
M  V30 56 H -3.243266 -2.258134 -5.344150 0
M  V30 57 H -4.437961 -3.517696 -3.588764 0
M  V30 58 H -5.383388 -2.055829 -3.149472 0
M  V30 END ATOM
M  V30 BEGIN BOND
M  V30 1 1 1 2
M  V30 2 1 2 3
M  V30 3 2 3 4
M  V30 4 1 4 5
M  V30 5 2 5 6
M  V30 6 1 6 7
M  V30 7 2 7 8
M  V30 8 1 8 9
M  V30 9 1 9 10
M  V30 10 1 10 11
M  V30 11 2 11 12
M  V30 12 1 12 13
M  V30 13 2 13 14
M  V30 14 1 14 15
M  V30 15 1 14 16
M  V30 16 1 16 17
M  V30 17 2 16 18
M  V30 18 2 9 19
M  V30 19 1 19 20
M  V30 20 2 20 21
M  V30 21 1 21 22
M  V30 22 1 22 23
M  V30 23 2 23 24
M  V30 24 1 23 25
M  V30 25 2 25 26
M  V30 26 1 26 27
M  V30 27 1 27 28
M  V30 28 1 28 29
M  V30 29 1 29 30
M  V30 30 1 30 31
M  V30 31 1 31 32
M  V30 32 1 32 33
M  V30 33 1 21 3
M  V30 34 1 33 28
M  V30 35 1 19 5
M  V30 36 1 18 11
M  V30 37 1 1 34
M  V30 38 1 1 35
M  V30 39 1 1 36
M  V30 40 1 4 37
M  V30 41 1 7 38
M  V30 42 1 10 39
M  V30 43 1 12 40
M  V30 44 1 13 41
M  V30 45 1 18 42
M  V30 46 1 20 43
M  V30 47 1 22 44
M  V30 48 1 25 45
M  V30 49 1 26 46
M  V30 50 1 27 47
M  V30 51 1 27 48
M  V30 52 1 29 49
M  V30 53 1 29 50
M  V30 54 1 30 51
M  V30 55 1 30 52
M  V30 56 1 31 53
M  V30 57 1 31 54
M  V30 58 1 32 55
M  V30 59 1 32 56
M  V30 60 1 33 57
M  V30 61 1 33 58
M  V30 END BOND
M  V30 END CTAB
M  END
>  <Dataset>  (238) 
OralDrugs

>  <Ligand_Instance>  (238) 
nan

>  <PDB_ID>  (238) 
nan

>  <Standardized_SMILES>  (238) 
COc1cc2ncnc(Nc3ccc(F)c(Cl)c3)c2cc1NC(=O)/C=C/CN1CCCCC1

>  <Name>  (238) 
Dacomitinib

>  <Pocket>  (238) 
nan

>  <ATP_Site>  (238) 
nan

>  <Peripheral>  (238) 
nan

>  <Num_H_Atoms_ProtBoundConf>  (238) 
nan

>  <Num_Resolved_Atoms>  (238) 
nan

>  <Num_Not_Resolved_Atoms>  (238) 
nan

$$$$
CHEMBL284348
     RDKit          3D

  0  0  0  0  0  0  0  0  0  0999 V3000
M  V30 BEGIN CTAB
M  V30 COUNTS 13 13 0 0 0
M  V30 BEGIN ATOM
M  V30 1 N -0.835354 -0.146764 1.134621 0
M  V30 2 C 0.529869 -0.341797 0.739499 0
M  V30 3 C 0.920431 -0.431240 -0.567044 0
M  V30 4 C 2.226291 -0.618311 -0.963691 0
M  V30 5 N 3.133919 -0.713305 0.003010 0
M  V30 6 C 2.800271 -0.632207 1.285506 0
M  V30 7 C 1.494549 -0.443920 1.726027 0
M  V30 8 H -1.426514 -0.669217 1.804994 0
M  V30 9 H -1.212075 0.690405 0.599220 0
M  V30 10 H 0.104045 -0.341654 -1.290730 0
M  V30 11 H 2.495150 -0.683536 -1.993054 0
M  V30 12 H 3.558071 -0.712722 2.049708 0
M  V30 13 H 1.254014 -0.382028 2.772080 0
M  V30 END ATOM
M  V30 BEGIN BOND
M  V30 1 1 1 2
M  V30 2 2 2 3
M  V30 3 1 3 4
M  V30 4 2 4 5
M  V30 5 1 5 6
M  V30 6 2 6 7
M  V30 7 1 7 2
M  V30 8 1 1 8
M  V30 9 1 1 9
M  V30 10 1 3 10
M  V30 11 1 4 11
M  V30 12 1 6 12
M  V30 13 1 7 13
M  V30 END BOND
M  V30 END CTAB
M  END
>  <Dataset>  (239) 
OralDrugs

>  <Ligand_Instance>  (239) 
nan

>  <PDB_ID>  (239) 
nan

>  <Standardized_SMILES>  (239) 
Nc1ccncc1

>  <Name>  (239) 
Dalfampridine

>  <Pocket>  (239) 
nan

>  <ATP_Site>  (239) 
nan

>  <Peripheral>  (239) 
nan

>  <Num_H_Atoms_ProtBoundConf>  (239) 
nan

>  <Num_Resolved_Atoms>  (239) 
nan

>  <Num_Not_Resolved_Atoms>  (239) 
nan

$$$$
CHEMBL1479
     RDKit          3D

  0  0  0  0  0  0  0  0  0  0999 V3000
M  V30 BEGIN CTAB
M  V30 COUNTS 52 56 0 0 0
M  V30 BEGIN ATOM
M  V30 1 C -1.653592 -4.170104 3.545577 0
M  V30 2 C -1.332345 -4.203038 2.363149 0
M  V30 3 C -0.965971 -4.225335 0.942135 0 CFG=2
M  V30 4 O -1.817715 -5.000674 0.196471 0
M  V30 5 C 0.490434 -4.684765 0.879256 0
M  V30 6 C 1.273868 -3.434447 1.298286 0
M  V30 7 C 0.278165 -2.328341 1.412217 0 CFG=1
M  V30 8 C 0.765479 -1.026829 0.822524 0 CFG=2
M  V30 9 C 1.898399 -0.472084 1.659310 0
M  V30 10 C 2.456301 0.705311 0.847485 0
M  V30 11 C 1.367139 1.680208 0.642819 0
M  V30 12 C 1.615684 2.939793 1.043498 0
M  V30 13 C 0.630644 3.997643 0.902316 0
M  V30 14 O 0.506647 5.257518 1.151863 0
M  V30 15 N -0.654542 5.719046 0.797842 0
M  V30 16 C -1.356899 4.699079 0.275459 0
M  V30 17 C -0.552575 3.579897 0.331137 0
M  V30 18 C -0.949132 2.229626 -0.137954 0
M  V30 19 C 0.110677 1.189698 0.010225 0 CFG=1
M  V30 20 C 0.495565 0.769257 -1.403028 0
M  V30 21 C -0.345518 -0.015448 0.821829 0 CFG=1
M  V30 22 C -1.649028 -0.523173 0.339616 0
M  V30 23 C -1.974169 -1.944422 0.644775 0
M  V30 24 C -0.798658 -2.812194 0.429280 0 CFG=2
M  V30 25 C -0.280590 -2.907984 -0.962580 0
M  V30 26 H -1.925711 -4.137273 4.572336 0
M  V30 27 H -1.385463 -5.579478 -0.476529 0
M  V30 28 H 0.670651 -4.945319 -0.186965 0
M  V30 29 H 0.696896 -5.542737 1.534004 0
M  V30 30 H 2.097352 -3.211336 0.582834 0
M  V30 31 H 1.753069 -3.691194 2.277316 0
M  V30 32 H -0.182451 -2.236239 2.401691 0
M  V30 33 H 1.185025 -1.265751 -0.157546 0
M  V30 34 H 1.505996 -0.055459 2.632345 0
M  V30 35 H 2.708004 -1.191886 1.829849 0
M  V30 36 H 3.316281 1.165488 1.413644 0
M  V30 37 H 2.889019 0.282177 -0.061191 0
M  V30 38 H 2.571924 3.187812 1.485434 0
M  V30 39 H -2.368048 4.853347 -0.091680 0
M  V30 40 H -1.889709 1.967422 0.393395 0
M  V30 41 H -1.278901 2.360293 -1.210984 0
M  V30 42 H 1.448021 0.255067 -1.478848 0
M  V30 43 H -0.347229 0.298922 -1.954339 0
M  V30 44 H 0.641745 1.752152 -1.942056 0
M  V30 45 H -0.453131 0.342896 1.870415 0
M  V30 46 H -1.866197 -0.327073 -0.746490 0
M  V30 47 H -2.450767 0.085796 0.857676 0
M  V30 48 H -2.796996 -2.256213 -0.043189 0
M  V30 49 H -2.294636 -2.059779 1.694510 0
M  V30 50 H 0.822470 -3.083045 -1.006944 0
M  V30 51 H -0.511612 -2.069496 -1.615790 0
M  V30 52 H -0.749529 -3.813876 -1.442722 0
M  V30 END ATOM
M  V30 BEGIN BOND
M  V30 1 3 1 2
M  V30 2 1 3 2 CFG=1
M  V30 3 1 3 4
M  V30 4 1 3 5
M  V30 5 1 5 6
M  V30 6 1 6 7
M  V30 7 1 7 8
M  V30 8 1 8 9
M  V30 9 1 9 10
M  V30 10 1 10 11
M  V30 11 2 11 12
M  V30 12 1 12 13
M  V30 13 1 13 14
M  V30 14 1 14 15
M  V30 15 2 15 16
M  V30 16 1 16 17
M  V30 17 1 17 18
M  V30 18 1 18 19
M  V30 19 1 19 20 CFG=3
M  V30 20 1 19 21
M  V30 21 1 21 22
M  V30 22 1 22 23
M  V30 23 1 23 24
M  V30 24 1 24 25 CFG=3
M  V30 25 1 24 3
M  V30 26 1 24 7
M  V30 27 1 21 8
M  V30 28 1 19 11
M  V30 29 2 17 13
M  V30 30 1 1 26
M  V30 31 1 4 27
M  V30 32 1 5 28
M  V30 33 1 5 29
M  V30 34 1 6 30
M  V30 35 1 6 31
M  V30 36 1 7 32 CFG=1
M  V30 37 1 8 33 CFG=3
M  V30 38 1 9 34
M  V30 39 1 9 35
M  V30 40 1 10 36
M  V30 41 1 10 37
M  V30 42 1 12 38
M  V30 43 1 16 39
M  V30 44 1 18 40
M  V30 45 1 18 41
M  V30 46 1 20 42
M  V30 47 1 20 43
M  V30 48 1 20 44
M  V30 49 1 21 45 CFG=1
M  V30 50 1 22 46
M  V30 51 1 22 47
M  V30 52 1 23 48
M  V30 53 1 23 49
M  V30 54 1 25 50
M  V30 55 1 25 51
M  V30 56 1 25 52
M  V30 END BOND
M  V30 END CTAB
M  END
>  <Dataset>  (240) 
OralDrugs

>  <Ligand_Instance>  (240) 
nan

>  <PDB_ID>  (240) 
nan

>  <Standardized_SMILES>  (240) 
C#C[C@]1(O)CC[C@H]2[C@@H]3CCC4=Cc5oncc5C[C@]4(C)[C@H]3CC[C@@]21C

>  <Name>  (240) 
Danazol

>  <Pocket>  (240) 
nan

>  <ATP_Site>  (240) 
nan

>  <Peripheral>  (240) 
nan

>  <Num_H_Atoms_ProtBoundConf>  (240) 
nan

>  <Num_Resolved_Atoms>  (240) 
nan

>  <Num_Not_Resolved_Atoms>  (240) 
nan

$$$$
CHEMBL1201288
     RDKit          3D

  0  0  0  0  0  0  0  0  0  0999 V3000
M  V30 BEGIN CTAB
M  V30 COUNTS 33 35 0 0 0
M  V30 BEGIN ATOM
M  V30 1 O 1.150793 -6.022842 4.912758 0
M  V30 2 C 0.295437 -5.381025 4.254281 0
M  V30 3 C 0.001956 -5.537707 2.784372 0
M  V30 4 N -0.261362 -4.148680 2.379316 0
M  V30 5 N -0.095184 -3.203825 1.326579 0
M  V30 6 C 1.025817 -2.783900 0.903559 0
M  V30 7 C 1.098237 -1.810496 -0.185205 0
M  V30 8 C 1.625647 -1.740662 -1.458898 0
M  V30 9 C 1.306496 -0.480144 -1.923420 0
M  V30 10 C 0.599413 0.163225 -0.914621 0
M  V30 11 C 0.102548 1.532116 -1.075029 0
M  V30 12 C 0.287774 2.283238 -2.211454 0
M  V30 13 C -0.224377 3.584133 -2.272384 0
M  V30 14 C -0.901414 4.055894 -1.169478 0
M  V30 15 N -1.424706 5.384097 -1.230767 0 CHG=1 VAL=4
M  V30 16 O -2.052447 5.887614 -0.270842 0
M  V30 17 O -1.334012 6.282452 -2.290386 0 CHG=-1 VAL=1
M  V30 18 C -1.108031 3.331338 -0.009266 0
M  V30 19 C -0.587513 2.052316 0.011760 0
M  V30 20 O 0.493811 -0.660744 0.108423 0
M  V30 21 C -0.946479 -3.598871 3.526471 0
M  V30 22 O -1.751441 -2.614428 3.664706 0
M  V30 23 N -0.598955 -4.367661 4.695395 0
M  V30 24 H -0.868778 -6.193342 2.638872 0
M  V30 25 H 0.941024 -5.905790 2.327393 0
M  V30 26 H 1.930656 -3.177345 1.383653 0
M  V30 27 H 2.146084 -2.617899 -1.818632 0
M  V30 28 H 1.623035 -0.195639 -2.917886 0
M  V30 29 H 0.830486 1.825521 -3.020109 0
M  V30 30 H -0.074814 4.169369 -3.169834 0
M  V30 31 H -1.634015 3.693978 0.851252 0
M  V30 32 H -0.736014 1.451130 0.921895 0
M  V30 33 H -0.918691 -4.237492 5.682634 0
M  V30 END ATOM
M  V30 BEGIN BOND
M  V30 1 2 1 2
M  V30 2 1 2 3
M  V30 3 1 3 4
M  V30 4 1 4 5
M  V30 5 2 5 6
M  V30 6 1 6 7
M  V30 7 2 7 8
M  V30 8 1 8 9
M  V30 9 2 9 10
M  V30 10 1 10 11
M  V30 11 2 11 12
M  V30 12 1 12 13
M  V30 13 2 13 14
M  V30 14 1 14 15
M  V30 15 2 15 16
M  V30 16 1 15 17
M  V30 17 1 14 18
M  V30 18 2 18 19
M  V30 19 1 10 20
M  V30 20 1 4 21
M  V30 21 2 21 22
M  V30 22 1 21 23
M  V30 23 1 23 2
M  V30 24 1 20 7
M  V30 25 1 19 11
M  V30 26 1 3 24
M  V30 27 1 3 25
M  V30 28 1 6 26
M  V30 29 1 8 27
M  V30 30 1 9 28
M  V30 31 1 12 29
M  V30 32 1 13 30
M  V30 33 1 18 31
M  V30 34 1 19 32
M  V30 35 1 23 33
M  V30 END BOND
M  V30 END CTAB
M  END
>  <Dataset>  (241) 
OralDrugs

>  <Ligand_Instance>  (241) 
nan

>  <PDB_ID>  (241) 
nan

>  <Standardized_SMILES>  (241) 
O=C1CN(/N=C/c2ccc(-c3ccc([N+](=O)[O-])cc3)o2)C(=O)N1

>  <Name>  (241) 
Dantrolene

>  <Pocket>  (241) 
nan

>  <ATP_Site>  (241) 
nan

>  <Peripheral>  (241) 
nan

>  <Num_H_Atoms_ProtBoundConf>  (241) 
nan

>  <Num_Resolved_Atoms>  (241) 
nan

>  <Num_Not_Resolved_Atoms>  (241) 
nan

$$$$
CHEMBL429910
     RDKit          3D

  0  0  0  0  0  0  0  0  0  0999 V3000
M  V30 BEGIN CTAB
M  V30 COUNTS 53 55 0 0 0
M  V30 BEGIN ATOM
M  V30 1 C -1.706577 -6.169915 5.715866 0
M  V30 2 C -0.925801 -5.874350 4.455421 0
M  V30 3 O -0.591357 -4.505747 4.350309 0
M  V30 4 C 0.125646 -4.018832 3.266428 0
M  V30 5 C 0.451216 -2.676574 3.167434 0
M  V30 6 C 1.165364 -2.259125 2.063276 0
M  V30 7 C 1.594236 -3.092120 1.019746 0
M  V30 8 C 2.359190 -2.419796 -0.061069 0
M  V30 9 C 1.495480 -1.712554 -1.041699 0
M  V30 10 C 1.362858 -0.340567 -0.965178 0
M  V30 11 C 0.588814 0.438476 -1.805070 0
M  V30 12 C 0.577326 1.903221 -1.562892 0 CFG=2
M  V30 13 O 0.454185 2.090605 -0.222092 0
M  V30 14 C -0.177247 3.236680 0.205277 0 CFG=2
M  V30 15 C -0.286059 3.165580 1.716587 0
M  V30 16 O 0.954737 3.076638 2.343210 0
M  V30 17 C -1.588620 3.367639 -0.317767 0 CFG=1
M  V30 18 O -1.829184 4.726147 -0.503583 0
M  V30 19 C -1.766021 2.638189 -1.629590 0 CFG=2
M  V30 20 O -2.264441 1.367431 -1.433062 0
M  V30 21 C -0.441370 2.645764 -2.324666 0 CFG=1
M  V30 22 O -0.024565 4.001047 -2.326642 0
M  V30 23 C -0.102364 -0.223423 -2.796587 0
M  V30 24 C -0.021562 -1.592460 -2.938411 0
M  V30 25 C 0.775250 -2.284215 -2.054564 0
M  V30 26 Cl 0.853548 -4.004124 -2.283008 0
M  V30 27 C 1.247427 -4.418351 1.162372 0
M  V30 28 C 0.534662 -4.862146 2.254465 0
M  V30 29 H -1.135787 -5.937208 6.615019 0
M  V30 30 H -2.675801 -5.619341 5.652842 0
M  V30 31 H -1.991486 -7.246322 5.677875 0
M  V30 32 H -1.560135 -6.096719 3.567933 0
M  V30 33 H -0.000769 -6.483861 4.400117 0
M  V30 34 H 0.152260 -1.981143 3.934884 0
M  V30 35 H 1.391737 -1.188242 2.042672 0
M  V30 36 H 3.008453 -1.650908 0.434049 0
M  V30 37 H 3.026146 -3.154621 -0.570221 0
M  V30 38 H 1.927261 0.162726 -0.161798 0
M  V30 39 H 1.581892 2.288554 -1.894195 0
M  V30 40 H 0.461720 4.097470 -0.043457 0
M  V30 41 H -0.932677 2.278347 1.917370 0
M  V30 42 H -0.863727 4.036632 2.105576 0
M  V30 43 H 1.330203 2.178659 2.322415 0
M  V30 44 H -2.312340 2.985249 0.401855 0
M  V30 45 H -2.257521 5.170321 0.258967 0
M  V30 46 H -2.483220 3.211567 -2.271500 0
M  V30 47 H -3.233445 1.416725 -1.230979 0
M  V30 48 H -0.518160 2.388554 -3.400512 0
M  V30 49 H -0.764031 4.612013 -2.586274 0
M  V30 50 H -0.711674 0.370058 -3.462104 0
M  V30 51 H -0.572168 -2.083222 -3.721774 0
M  V30 52 H 1.580074 -5.057357 0.371168 0
M  V30 53 H 0.324492 -5.915030 2.253166 0
M  V30 END ATOM
M  V30 BEGIN BOND
M  V30 1 1 1 2
M  V30 2 1 2 3
M  V30 3 1 3 4
M  V30 4 2 4 5
M  V30 5 1 5 6
M  V30 6 2 6 7
M  V30 7 1 7 8
M  V30 8 1 8 9
M  V30 9 2 9 10
M  V30 10 1 10 11
M  V30 11 1 11 12
M  V30 12 1 12 13
M  V30 13 1 13 14
M  V30 14 1 14 15
M  V30 15 1 15 16
M  V30 16 1 14 17
M  V30 17 1 17 18
M  V30 18 1 17 19
M  V30 19 1 19 20
M  V30 20 1 19 21
M  V30 21 1 21 22
M  V30 22 2 11 23
M  V30 23 1 23 24
M  V30 24 2 24 25
M  V30 25 1 25 26
M  V30 26 1 7 27
M  V30 27 2 27 28
M  V30 28 1 28 4
M  V30 29 1 25 9
M  V30 30 1 21 12
M  V30 31 1 1 29
M  V30 32 1 1 30
M  V30 33 1 1 31
M  V30 34 1 2 32
M  V30 35 1 2 33
M  V30 36 1 5 34
M  V30 37 1 6 35
M  V30 38 1 8 36
M  V30 39 1 8 37
M  V30 40 1 10 38
M  V30 41 1 12 39 CFG=3
M  V30 42 1 14 40 CFG=1
M  V30 43 1 15 41
M  V30 44 1 15 42
M  V30 45 1 16 43
M  V30 46 1 17 44 CFG=1
M  V30 47 1 18 45
M  V30 48 1 19 46 CFG=3
M  V30 49 1 20 47
M  V30 50 1 21 48 CFG=3
M  V30 51 1 22 49
M  V30 52 1 23 50
M  V30 53 1 24 51
M  V30 54 1 27 52
M  V30 55 1 28 53
M  V30 END BOND
M  V30 END CTAB
M  END
>  <Dataset>  (242) 
OralDrugs

>  <Ligand_Instance>  (242) 
nan

>  <PDB_ID>  (242) 
nan

>  <Standardized_SMILES>  (242) 
CCOc1ccc(Cc2cc([C@@H]3O[C@H](CO)[C@@H](O)[C@H](O)[C@H]3O)ccc2Cl)cc1

>  <Name>  (242) 
Dapagliflozin

>  <Pocket>  (242) 
nan

>  <ATP_Site>  (242) 
nan

>  <Peripheral>  (242) 
nan

>  <Num_H_Atoms_ProtBoundConf>  (242) 
nan

>  <Num_Resolved_Atoms>  (242) 
nan

>  <Num_Not_Resolved_Atoms>  (242) 
nan

$$$$
CHEMBL3544988
     RDKit          3D

  0  0  0  0  0  0  0  0  0  0999 V3000
M  V30 BEGIN CTAB
M  V30 COUNTS 55 57 0 0 0
M  V30 BEGIN ATOM
M  V30 1 O 1.562804 -4.076636 4.680095 0
M  V30 2 C 1.348073 -3.848815 3.449083 0
M  V30 3 O 0.243690 -3.033035 3.210663 0
M  V30 4 C 2.157541 -4.369732 2.305501 0
M  V30 5 N 1.642746 -3.921034 1.025380 0
M  V30 6 C 1.670537 -2.499619 0.981545 0
M  V30 7 O 2.047495 -1.646796 1.826640 0
M  V30 8 C 1.236891 -1.621767 -0.135900 0
M  V30 9 C 1.469528 -0.225522 0.317362 0
M  V30 10 O 2.667936 0.032100 0.548327 0
M  V30 11 N 0.483197 0.781015 0.496940 0
M  V30 12 C 0.751215 2.079168 1.027320 0
M  V30 13 C 1.705978 2.922016 0.239264 0
M  V30 14 C 1.710041 4.280200 0.912195 0
M  V30 15 C 2.459846 4.135815 2.216375 0
M  V30 16 C 2.615934 2.686127 2.600988 0
M  V30 17 C 1.285203 1.983081 2.440011 0
M  V30 18 C -0.830554 0.371574 0.091425 0
M  V30 19 O -1.762185 1.235639 0.229101 0
M  V30 20 N -1.174930 -0.896314 -0.442376 0
M  V30 21 C -2.545557 -1.196729 -0.818823 0
M  V30 22 C -3.084077 -2.357234 -0.085643 0
M  V30 23 C -3.445639 -3.570664 -0.843172 0
M  V30 24 C -3.483902 -3.490484 -2.325830 0
M  V30 25 C -3.795773 -2.067392 -2.738926 0
M  V30 26 C -2.555735 -1.305865 -2.315924 0
M  V30 27 C -0.132308 -1.862475 -0.596125 0
M  V30 28 O -0.353461 -2.975069 -1.141442 0
M  V30 29 H -0.497232 -2.954298 3.885922 0
M  V30 30 H 2.060781 -5.474576 2.327082 0
M  V30 31 H 3.227470 -4.099608 2.425560 0
M  V30 32 H 1.269713 -4.343038 0.156137 0
M  V30 33 H 1.966823 -1.801578 -0.976130 0
M  V30 34 H -0.214613 2.639308 1.045786 0
M  V30 35 H 1.298995 3.094399 -0.791904 0
M  V30 36 H 2.743811 2.570285 0.219320 0
M  V30 37 H 2.222323 5.045206 0.294261 0
M  V30 38 H 0.664197 4.551026 1.147369 0
M  V30 39 H 3.444580 4.646737 2.164761 0
M  V30 40 H 1.893220 4.631832 3.052198 0
M  V30 41 H 2.881598 2.595017 3.690981 0
M  V30 42 H 3.453639 2.170458 2.083335 0
M  V30 43 H 1.432694 0.920829 2.737190 0
M  V30 44 H 0.590230 2.508077 3.142342 0
M  V30 45 H -3.142808 -0.280000 -0.597038 0
M  V30 46 H -2.342890 -2.642103 0.703952 0
M  V30 47 H -3.976682 -2.048028 0.526006 0
M  V30 48 H -4.447393 -3.987184 -0.523561 0
M  V30 49 H -2.755804 -4.434041 -0.601350 0
M  V30 50 H -4.263740 -4.134778 -2.774999 0
M  V30 51 H -2.531509 -3.774526 -2.820158 0
M  V30 52 H -3.901034 -1.957793 -3.827269 0
M  V30 53 H -4.709378 -1.759101 -2.196979 0
M  V30 54 H -1.686537 -1.851223 -2.737248 0
M  V30 55 H -2.629906 -0.313789 -2.802374 0
M  V30 END ATOM
M  V30 BEGIN BOND
M  V30 1 2 1 2
M  V30 2 1 2 3
M  V30 3 1 2 4
M  V30 4 1 4 5
M  V30 5 1 5 6
M  V30 6 2 6 7
M  V30 7 1 6 8
M  V30 8 1 8 9
M  V30 9 2 9 10
M  V30 10 1 9 11
M  V30 11 1 11 12
M  V30 12 1 12 13
M  V30 13 1 13 14
M  V30 14 1 14 15
M  V30 15 1 15 16
M  V30 16 1 16 17
M  V30 17 1 11 18
M  V30 18 2 18 19
M  V30 19 1 18 20
M  V30 20 1 20 21
M  V30 21 1 21 22
M  V30 22 1 22 23
M  V30 23 1 23 24
M  V30 24 1 24 25
M  V30 25 1 25 26
M  V30 26 1 20 27
M  V30 27 2 27 28
M  V30 28 1 27 8
M  V30 29 1 17 12
M  V30 30 1 26 21
M  V30 31 1 3 29
M  V30 32 1 4 30
M  V30 33 1 4 31
M  V30 34 1 5 32
M  V30 35 1 8 33
M  V30 36 1 12 34
M  V30 37 1 13 35
M  V30 38 1 13 36
M  V30 39 1 14 37
M  V30 40 1 14 38
M  V30 41 1 15 39
M  V30 42 1 15 40
M  V30 43 1 16 41
M  V30 44 1 16 42
M  V30 45 1 17 43
M  V30 46 1 17 44
M  V30 47 1 21 45
M  V30 48 1 22 46
M  V30 49 1 22 47
M  V30 50 1 23 48
M  V30 51 1 23 49
M  V30 52 1 24 50
M  V30 53 1 24 51
M  V30 54 1 25 52
M  V30 55 1 25 53
M  V30 56 1 26 54
M  V30 57 1 26 55
M  V30 END BOND
M  V30 END CTAB
M  END
>  <Dataset>  (243) 
OralDrugs

>  <Ligand_Instance>  (243) 
nan

>  <PDB_ID>  (243) 
nan

>  <Standardized_SMILES>  (243) 
O=C(O)CNC(=O)C1C(=O)N(C2CCCCC2)C(=O)N(C2CCCCC2)C1=O

>  <Name>  (243) 
Daprodustat

>  <Pocket>  (243) 
nan

>  <ATP_Site>  (243) 
nan

>  <Peripheral>  (243) 
nan

>  <Num_H_Atoms_ProtBoundConf>  (243) 
nan

>  <Num_Resolved_Atoms>  (243) 
nan

>  <Num_Not_Resolved_Atoms>  (243) 
nan

$$$$
CHEMBL1043
     RDKit          3D

  0  0  0  0  0  0  0  0  0  0999 V3000
M  V30 BEGIN CTAB
M  V30 COUNTS 29 30 0 0 0
M  V30 BEGIN ATOM
M  V30 1 N 0.155567 -4.510451 3.908796 0
M  V30 2 C 0.633904 -3.377954 3.155071 0
M  V30 3 C 1.288764 -3.569560 1.956550 0
M  V30 4 C 1.704572 -2.412173 1.317899 0
M  V30 5 C 1.468493 -1.165741 1.862605 0
M  V30 6 S 2.009698 0.274549 1.025011 0
M  V30 7 O 3.282503 0.067564 0.293162 0
M  V30 8 O 2.254759 1.374248 2.029629 0
M  V30 9 C 0.698505 0.793660 -0.050457 0
M  V30 10 C 0.745896 0.251807 -1.313811 0
M  V30 11 C -0.275713 0.641094 -2.189483 0
M  V30 12 C -1.262835 1.518796 -1.786975 0
M  V30 13 N -2.271234 1.866475 -2.742314 0
M  V30 14 C -1.249661 2.022888 -0.508262 0
M  V30 15 C -0.257393 1.673641 0.414099 0
M  V30 16 C 0.803702 -1.014763 3.075145 0
M  V30 17 C 0.388135 -2.142215 3.716222 0
M  V30 18 H 0.612720 -5.279211 4.476878 0
M  V30 19 H -0.887496 -4.497603 3.824551 0
M  V30 20 H 1.437012 -4.577128 1.592998 0
M  V30 21 H 2.228527 -2.524573 0.362865 0
M  V30 22 H 1.512621 -0.432210 -1.632099 0
M  V30 23 H -0.255925 0.220551 -3.200700 0
M  V30 24 H -2.049695 1.823150 -3.764711 0
M  V30 25 H -3.231435 2.167096 -2.517787 0
M  V30 26 H -2.030256 2.711124 -0.204474 0
M  V30 27 H -0.241913 2.067087 1.421539 0
M  V30 28 H 0.636271 -0.026652 3.471410 0
M  V30 29 H -0.125196 -1.995895 4.655334 0
M  V30 END ATOM
M  V30 BEGIN BOND
M  V30 1 1 1 2
M  V30 2 2 2 3
M  V30 3 1 3 4
M  V30 4 2 4 5
M  V30 5 1 5 6
M  V30 6 2 6 7
M  V30 7 2 6 8
M  V30 8 1 6 9
M  V30 9 2 9 10
M  V30 10 1 10 11
M  V30 11 2 11 12
M  V30 12 1 12 13
M  V30 13 1 12 14
M  V30 14 2 14 15
M  V30 15 1 5 16
M  V30 16 2 16 17
M  V30 17 1 17 2
M  V30 18 1 15 9
M  V30 19 1 1 18
M  V30 20 1 1 19
M  V30 21 1 3 20
M  V30 22 1 4 21
M  V30 23 1 10 22
M  V30 24 1 11 23
M  V30 25 1 13 24
M  V30 26 1 13 25
M  V30 27 1 14 26
M  V30 28 1 15 27
M  V30 29 1 16 28
M  V30 30 1 17 29
M  V30 END BOND
M  V30 END CTAB
M  END
>  <Dataset>  (244) 
OralDrugs

>  <Ligand_Instance>  (244) 
nan

>  <PDB_ID>  (244) 
nan

>  <Standardized_SMILES>  (244) 
Nc1ccc(S(=O)(=O)c2ccc(N)cc2)cc1

>  <Name>  (244) 
Dapsone

>  <Pocket>  (244) 
nan

>  <ATP_Site>  (244) 
nan

>  <Peripheral>  (244) 
nan

>  <Num_H_Atoms_ProtBoundConf>  (244) 
nan

>  <Num_Resolved_Atoms>  (244) 
nan

>  <Num_Not_Resolved_Atoms>  (244) 
nan

$$$$
CHEMBL4297590
     RDKit          3D

  0  0  0  0  0  0  0  0  0  0999 V3000
M  V30 BEGIN CTAB
M  V30 COUNTS 55 59 0 0 0
M  V30 BEGIN ATOM
M  V30 1 C 4.112753 0.817769 4.908813 0
M  V30 2 O 2.934861 0.652675 4.150525 0
M  V30 3 C 3.036336 0.405574 2.787119 0
M  V30 4 C 4.257425 0.317448 2.155740 0
M  V30 5 C 4.398027 0.074005 0.806662 0
M  V30 6 C 3.230384 -0.089413 0.055561 0
M  V30 7 N 3.398656 -0.338955 -1.332863 0
M  V30 8 N 4.270935 0.288119 -2.139246 0
M  V30 9 C 4.138275 -0.218250 -3.383198 0
M  V30 10 C 3.151701 -1.191567 -3.348494 0
M  V30 11 N 2.743651 -1.211392 -2.062106 0
M  V30 12 C 1.973043 -0.014276 0.620799 0
M  V30 13 C 0.764502 -0.187897 -0.177371 0
M  V30 14 O 0.323765 0.891700 -0.662652 0
M  V30 15 N 0.165020 -1.462785 -0.371435 0
M  V30 16 C 0.614417 -2.738385 0.152790 0
M  V30 17 C -0.649735 -3.569549 0.093278 0
M  V30 18 C -1.197125 -3.168018 -1.282027 0
M  V30 19 C -1.039184 -1.646437 -1.164606 0 CFG=2
M  V30 20 C -0.969111 -1.047593 -2.527487 0
M  V30 21 C -2.169604 -1.083996 -0.365059 0
M  V30 22 N -2.272386 -0.880973 0.981361 0
M  V30 23 C -3.475090 -0.353511 1.237064 0
M  V30 24 C -4.126722 0.053001 2.387375 0
M  V30 25 C -3.408254 -0.089974 3.680026 0
M  V30 26 C -5.404336 0.584769 2.418524 0
M  V30 27 Cl -6.193442 1.086591 3.890633 0
M  V30 28 C -6.043562 0.702251 1.187940 0
M  V30 29 C -5.458882 0.316914 -0.016642 0
M  V30 30 C -4.189576 -0.197816 0.066406 0
M  V30 31 N -3.338184 -0.663749 -0.890631 0
M  V30 32 C 1.934707 0.234654 1.987098 0
M  V30 33 H 3.831852 1.078102 5.952065 0
M  V30 34 H 4.758712 -0.059398 4.814076 0
M  V30 35 H 4.652152 1.732919 4.533003 0
M  V30 36 H 5.163219 0.439107 2.712402 0
M  V30 37 H 5.358964 0.006650 0.320642 0
M  V30 38 H 4.624325 -0.022424 -4.343173 0
M  V30 39 H 2.671989 -1.877572 -4.038223 0
M  V30 40 H 1.363239 -3.161897 -0.540018 0
M  V30 41 H 0.999976 -2.655973 1.189360 0
M  V30 42 H -1.400086 -3.164628 0.813379 0
M  V30 43 H -0.495983 -4.643060 0.198457 0
M  V30 44 H -2.277448 -3.400437 -1.379872 0
M  V30 45 H -0.581243 -3.565204 -2.102828 0
M  V30 46 H -1.496399 -1.683695 -3.272225 0
M  V30 47 H -1.476110 -0.060005 -2.574764 0
M  V30 48 H 0.073997 -0.933227 -2.856857 0
M  V30 49 H -2.376563 0.323017 3.601099 0
M  V30 50 H -3.929812 0.447592 4.496956 0
M  V30 51 H -3.383743 -1.156320 4.004680 0
M  V30 52 H -7.046614 1.108436 1.114993 0
M  V30 53 H -5.983077 0.423031 -0.940910 0
M  V30 54 H -3.574764 -0.686748 -1.902931 0
M  V30 55 H 0.955236 0.299864 2.464040 0
M  V30 END ATOM
M  V30 BEGIN BOND
M  V30 1 1 1 2
M  V30 2 1 2 3
M  V30 3 2 3 4
M  V30 4 1 4 5
M  V30 5 2 5 6
M  V30 6 1 6 7
M  V30 7 1 7 8
M  V30 8 2 8 9
M  V30 9 1 9 10
M  V30 10 2 10 11
M  V30 11 1 6 12
M  V30 12 1 12 13
M  V30 13 2 13 14
M  V30 14 1 13 15
M  V30 15 1 15 16
M  V30 16 1 16 17
M  V30 17 1 17 18
M  V30 18 1 18 19
M  V30 19 1 19 20 CFG=3
M  V30 20 1 19 21
M  V30 21 2 21 22
M  V30 22 1 22 23
M  V30 23 2 23 24
M  V30 24 1 24 25
M  V30 25 1 24 26
M  V30 26 1 26 27
M  V30 27 2 26 28
M  V30 28 1 28 29
M  V30 29 2 29 30
M  V30 30 1 30 31
M  V30 31 2 12 32
M  V30 32 1 32 3
M  V30 33 1 11 7
M  V30 34 1 19 15
M  V30 35 1 31 21
M  V30 36 1 30 23
M  V30 37 1 1 33
M  V30 38 1 1 34
M  V30 39 1 1 35
M  V30 40 1 4 36
M  V30 41 1 5 37
M  V30 42 1 9 38
M  V30 43 1 10 39
M  V30 44 1 16 40
M  V30 45 1 16 41
M  V30 46 1 17 42
M  V30 47 1 17 43
M  V30 48 1 18 44
M  V30 49 1 18 45
M  V30 50 1 20 46
M  V30 51 1 20 47
M  V30 52 1 20 48
M  V30 53 1 25 49
M  V30 54 1 25 50
M  V30 55 1 25 51
M  V30 56 1 28 52
M  V30 57 1 29 53
M  V30 58 1 31 54
M  V30 59 1 32 55
M  V30 END BOND
M  V30 END CTAB
M  END
>  <Dataset>  (245) 
OralDrugs

>  <Ligand_Instance>  (245) 
nan

>  <PDB_ID>  (245) 
nan

>  <Standardized_SMILES>  (245) 
COc1ccc(-n2nccn2)c(C(=O)N2CCC[C@@]2(C)c2nc3c(C)c(Cl)ccc3[nH]2)c1

>  <Name>  (245) 
Daridorexant

>  <Pocket>  (245) 
nan

>  <ATP_Site>  (245) 
nan

>  <Peripheral>  (245) 
nan

>  <Num_H_Atoms_ProtBoundConf>  (245) 
nan

>  <Num_Resolved_Atoms>  (245) 
nan

>  <Num_Not_Resolved_Atoms>  (245) 
nan

$$$$
CHEMBL1346
     RDKit          3D

  0  0  0  0  0  0  0  0  0  0999 V3000
M  V30 BEGIN CTAB
M  V30 COUNTS 62 66 0 0 0
M  V30 BEGIN ATOM
M  V30 1 N -2.138684 1.519992 4.208676 0
M  V30 2 C -1.014435 0.902074 3.667785 0
M  V30 3 O -0.691421 0.402731 4.799000 0
M  V30 4 C -0.302678 0.757109 2.335104 0
M  V30 5 C 0.828120 -0.106992 2.635263 0
M  V30 6 C 1.268287 -1.240790 1.999167 0
M  V30 7 C 2.359251 -1.998168 2.349563 0
M  V30 8 C 3.094425 -1.577085 3.460077 0
M  V30 9 C 2.688006 -0.435988 4.135741 0
M  V30 10 C 1.589885 0.288265 3.746983 0
M  V30 11 C 0.108058 2.130828 1.943723 0
M  V30 12 C 1.181217 2.070448 1.047566 0
M  V30 13 C 1.736409 3.245707 0.531366 0
M  V30 14 C 1.233567 4.500269 0.898343 0
M  V30 15 C 0.173631 4.546614 1.784392 0
M  V30 16 C -0.358241 3.379766 2.280152 0
M  V30 17 C -1.351653 0.282696 1.400343 0 CFG=2
M  V30 18 C -2.011989 -0.993895 1.728882 0
M  V30 19 C -2.712050 -1.306941 0.391662 0
M  V30 20 N -1.913372 -0.718468 -0.601805 0
M  V30 21 C -2.414315 -0.518003 -1.892623 0
M  V30 22 C -2.668890 -1.743790 -2.718433 0
M  V30 23 C -1.414849 -2.532776 -2.925874 0
M  V30 24 C -0.542714 -2.342526 -3.968777 0
M  V30 25 C 0.605413 -3.119429 -4.081478 0
M  V30 26 C 0.915257 -4.107612 -3.157343 0
M  V30 27 C 0.028687 -4.299868 -2.099616 0
M  V30 28 C -1.103621 -3.515359 -2.010572 0
M  V30 29 C 0.606627 -5.412794 -1.268968 0
M  V30 30 C 2.084874 -5.283799 -1.612434 0
M  V30 31 O 1.977236 -5.023068 -3.018817 0
M  V30 32 C -1.072634 0.310197 -0.048159 0
M  V30 33 H -2.342378 2.360286 4.782034 0
M  V30 34 H -3.173257 1.276146 4.177513 0
M  V30 35 H 0.705768 -1.547684 1.157407 0
M  V30 36 H 2.604222 -2.886412 1.754505 0
M  V30 37 H 3.950368 -2.208085 3.700512 0
M  V30 38 H 3.346608 -0.231248 4.967998 0
M  V30 39 H 1.462739 1.143434 4.417942 0
M  V30 40 H 1.745206 1.253386 0.617579 0
M  V30 41 H 2.553230 3.359575 -0.157856 0
M  V30 42 H 1.586545 5.444730 0.561295 0
M  V30 43 H -0.329084 5.421594 2.167237 0
M  V30 44 H -1.181908 3.300798 2.969216 0
M  V30 45 H -2.196589 1.049458 1.504314 0
M  V30 46 H -1.430461 -1.815697 2.113118 0
M  V30 47 H -2.868415 -0.861967 2.455534 0
M  V30 48 H -3.718416 -0.813658 0.371966 0
M  V30 49 H -2.891490 -2.371435 0.377545 0
M  V30 50 H -3.417473 -0.009345 -1.792599 0
M  V30 51 H -1.818962 0.179570 -2.501450 0
M  V30 52 H -3.000736 -1.415779 -3.722085 0
M  V30 53 H -3.460500 -2.406983 -2.317261 0
M  V30 54 H -0.775353 -1.575064 -4.694811 0
M  V30 55 H 1.284937 -2.952868 -4.916499 0
M  V30 56 H -1.710376 -3.760281 -1.151712 0
M  V30 57 H 0.173957 -6.380663 -1.509112 0
M  V30 58 H 0.526102 -5.194805 -0.172921 0
M  V30 59 H 2.499195 -4.415002 -1.058383 0
M  V30 60 H 2.661307 -6.190447 -1.435351 0
M  V30 61 H -0.048437 0.077819 -0.383551 0
M  V30 62 H -1.304936 1.289042 -0.537305 0
M  V30 END ATOM
M  V30 BEGIN BOND
M  V30 1 1 1 2
M  V30 2 2 2 3
M  V30 3 1 2 4
M  V30 4 1 4 5
M  V30 5 2 5 6
M  V30 6 1 6 7
M  V30 7 2 7 8
M  V30 8 1 8 9
M  V30 9 2 9 10
M  V30 10 1 4 11
M  V30 11 2 11 12
M  V30 12 1 12 13
M  V30 13 2 13 14
M  V30 14 1 14 15
M  V30 15 2 15 16
M  V30 16 1 4 17
M  V30 17 1 17 18
M  V30 18 1 18 19
M  V30 19 1 19 20
M  V30 20 1 20 21
M  V30 21 1 21 22
M  V30 22 1 22 23
M  V30 23 2 23 24
M  V30 24 1 24 25
M  V30 25 2 25 26
M  V30 26 1 26 27
M  V30 27 2 27 28
M  V30 28 1 27 29
M  V30 29 1 29 30
M  V30 30 1 30 31
M  V30 31 1 20 32
M  V30 32 1 10 5
M  V30 33 1 16 11
M  V30 34 1 32 17
M  V30 35 1 28 23
M  V30 36 1 31 26
M  V30 37 1 1 33
M  V30 38 1 1 34
M  V30 39 1 6 35
M  V30 40 1 7 36
M  V30 41 1 8 37
M  V30 42 1 9 38
M  V30 43 1 10 39
M  V30 44 1 12 40
M  V30 45 1 13 41
M  V30 46 1 14 42
M  V30 47 1 15 43
M  V30 48 1 16 44
M  V30 49 1 17 45 CFG=3
M  V30 50 1 18 46
M  V30 51 1 18 47
M  V30 52 1 19 48
M  V30 53 1 19 49
M  V30 54 1 21 50
M  V30 55 1 21 51
M  V30 56 1 22 52
M  V30 57 1 22 53
M  V30 58 1 24 54
M  V30 59 1 25 55
M  V30 60 1 28 56
M  V30 61 1 29 57
M  V30 62 1 29 58
M  V30 63 1 30 59
M  V30 64 1 30 60
M  V30 65 1 32 61
M  V30 66 1 32 62
M  V30 END BOND
M  V30 END CTAB
M  END
>  <Dataset>  (246) 
OralDrugs

>  <Ligand_Instance>  (246) 
nan

>  <PDB_ID>  (246) 
nan

>  <Standardized_SMILES>  (246) 
NC(=O)C(c1ccccc1)(c1ccccc1)[C@@H]1CCN(CCc2ccc3c(c2)CCO3)C1

>  <Name>  (246) 
Darifenacin

>  <Pocket>  (246) 
nan

>  <ATP_Site>  (246) 
nan

>  <Peripheral>  (246) 
nan

>  <Num_H_Atoms_ProtBoundConf>  (246) 
nan

>  <Num_Resolved_Atoms>  (246) 
nan

>  <Num_Not_Resolved_Atoms>  (246) 
nan

$$$$
CHEMBL4297185
     RDKit          3D

  0  0  0  0  0  0  0  0  0  0999 V3000
M  V30 BEGIN CTAB
M  V30 COUNTS 47 49 0 0 0
M  V30 BEGIN ATOM
M  V30 1 C 1.751385 -3.119115 7.680277 0
M  V30 2 C 3.094221 -2.504334 7.340838 0
M  V30 3 O 4.048020 -3.520291 7.337375 0
M  V30 4 C 3.064675 -1.911770 5.956378 0
M  V30 5 C 1.898620 -1.613025 5.242208 0
M  V30 6 C 2.341841 -1.096122 4.041104 0
M  V30 7 C 1.471987 -0.638778 2.960573 0
M  V30 8 O 0.234035 -0.732931 3.162526 0
M  V30 9 N 1.997163 -0.119972 1.756693 0
M  V30 10 C 1.133156 0.331311 0.690341 0 CFG=1
M  V30 11 C 1.328447 1.812756 0.420154 0
M  V30 12 C 1.351821 -0.395182 -0.606188 0
M  V30 13 N 0.427353 0.146937 -1.595614 0
M  V30 14 C 0.669292 1.178352 -2.419124 0
M  V30 15 C -0.435819 1.411091 -3.218727 0
M  V30 16 C -1.366041 0.455755 -2.829688 0
M  V30 17 C -2.689749 0.363450 -3.445119 0
M  V30 18 C -3.120682 1.205842 -4.450366 0
M  V30 19 C -4.368880 1.070582 -4.986193 0
M  V30 20 C -5.256437 0.123044 -4.581758 0
M  V30 21 C -6.559555 0.025048 -5.181044 0
M  V30 22 N -7.624044 -0.042453 -5.654907 0
M  V30 23 C -4.860254 -0.730046 -3.585032 0
M  V30 24 Cl -5.949487 -1.993335 -2.996019 0
M  V30 25 C -3.599295 -0.599887 -3.037748 0
M  V30 26 N -0.783335 -0.274906 -1.847200 0
M  V30 27 N 3.706009 -1.102233 4.074551 0
M  V30 28 N 4.139371 -1.591814 5.224159 0
M  V30 29 H 1.109575 -2.353714 8.206653 0
M  V30 30 H 1.841210 -3.966817 8.390430 0
M  V30 31 H 1.195469 -3.454715 6.797157 0
M  V30 32 H 3.374050 -1.734868 8.063204 0
M  V30 33 H 3.613311 -4.380857 7.191728 0
M  V30 34 H 0.891115 -1.773368 5.602561 0
M  V30 35 H 3.024000 -0.040948 1.587019 0
M  V30 36 H 0.056791 0.216254 0.942288 0
M  V30 37 H 2.275864 2.026817 -0.101045 0
M  V30 38 H 0.436362 2.145796 -0.160163 0
M  V30 39 H 1.314044 2.338621 1.411896 0
M  V30 40 H 2.391563 -0.326998 -0.976049 0
M  V30 41 H 1.101225 -1.483444 -0.529492 0
M  V30 42 H 1.606110 1.717641 -2.420834 0
M  V30 43 H -0.523676 2.192164 -3.985817 0
M  V30 44 H -2.448010 1.964743 -4.794497 0
M  V30 45 H -4.630645 1.778155 -5.777531 0
M  V30 46 H -3.243289 -1.258730 -2.241491 0
M  V30 47 H 5.161196 -1.687977 5.463129 0
M  V30 END ATOM
M  V30 BEGIN BOND
M  V30 1 1 1 2
M  V30 2 1 2 3
M  V30 3 1 2 4
M  V30 4 2 4 5
M  V30 5 1 5 6
M  V30 6 1 6 7
M  V30 7 2 7 8
M  V30 8 1 7 9
M  V30 9 1 9 10
M  V30 10 1 10 11
M  V30 11 1 10 12
M  V30 12 1 12 13
M  V30 13 1 13 14
M  V30 14 2 14 15
M  V30 15 1 15 16
M  V30 16 1 16 17
M  V30 17 2 17 18
M  V30 18 1 18 19
M  V30 19 2 19 20
M  V30 20 1 20 21
M  V30 21 3 21 22
M  V30 22 1 20 23
M  V30 23 1 23 24
M  V30 24 2 23 25
M  V30 25 2 16 26
M  V30 26 2 6 27
M  V30 27 1 27 28
M  V30 28 1 28 4
M  V30 29 1 26 13
M  V30 30 1 25 17
M  V30 31 1 1 29
M  V30 32 1 1 30
M  V30 33 1 1 31
M  V30 34 1 2 32
M  V30 35 1 3 33
M  V30 36 1 5 34
M  V30 37 1 9 35
M  V30 38 1 10 36 CFG=1
M  V30 39 1 11 37
M  V30 40 1 11 38
M  V30 41 1 11 39
M  V30 42 1 12 40
M  V30 43 1 12 41
M  V30 44 1 14 42
M  V30 45 1 15 43
M  V30 46 1 18 44
M  V30 47 1 19 45
M  V30 48 1 25 46
M  V30 49 1 28 47
M  V30 END BOND
M  V30 END CTAB
M  END
>  <Dataset>  (247) 
OralDrugs

>  <Ligand_Instance>  (247) 
nan

>  <PDB_ID>  (247) 
nan

>  <Standardized_SMILES>  (247) 
CC(O)c1cc(C(=O)N[C@@H](C)Cn2ccc(-c3ccc(C#N)c(Cl)c3)n2)n[nH]1

>  <Name>  (247) 
Darolutamide

>  <Pocket>  (247) 
nan

>  <ATP_Site>  (247) 
nan

>  <Peripheral>  (247) 
nan

>  <Num_H_Atoms_ProtBoundConf>  (247) 
nan

>  <Num_Resolved_Atoms>  (247) 
nan

>  <Num_Not_Resolved_Atoms>  (247) 
nan

$$$$
CHEMBL1323
     RDKit          3D

  0  0  0  0  0  0  0  0  0  0999 V3000
M  V30 BEGIN CTAB
M  V30 COUNTS 75 78 0 0 0
M  V30 BEGIN ATOM
M  V30 1 C 2.863038 -4.630021 1.007955 0
M  V30 2 C 1.771978 -3.700262 1.450321 0
M  V30 3 C 1.914917 -3.586028 2.980077 0
M  V30 4 C 1.902363 -2.379073 0.803516 0
M  V30 5 N 1.849611 -2.277601 -0.600701 0
M  V30 6 C 0.755975 -2.929872 -1.234842 0
M  V30 7 C -0.081034 -2.089481 -2.139461 0 CFG=1
M  V30 8 O -1.128028 -2.900468 -2.684240 0
M  V30 9 C -0.673621 -0.853452 -1.534584 0 CFG=2
M  V30 10 C 0.293443 0.270137 -1.301891 0
M  V30 11 C -0.382404 1.462871 -0.700287 0
M  V30 12 C -0.878693 2.361209 -1.650742 0
M  V30 13 C -1.524531 3.503796 -1.251418 0
M  V30 14 C -1.668029 3.737141 0.105429 0
M  V30 15 C -1.179064 2.852080 1.040730 0
M  V30 16 C -0.521845 1.689064 0.653400 0
M  V30 17 N -1.569764 -1.089578 -0.436303 0
M  V30 18 C -2.963803 -0.857342 -0.443694 0
M  V30 19 O -3.573837 -0.400968 -1.462453 0
M  V30 20 O -3.794226 -1.099703 0.641802 0
M  V30 21 C -5.179135 -0.865253 0.623648 0 CFG=1
M  V30 22 C -6.025243 -2.009286 1.050356 0
M  V30 23 O -6.836637 -1.646767 2.090211 0
M  V30 24 C -6.449665 -0.430209 2.588142 0 CFG=1
M  V30 25 O -5.845835 -0.633971 3.803883 0
M  V30 26 C -4.477485 -0.481939 3.648503 0
M  V30 27 C -4.270123 0.488680 2.511337 0
M  V30 28 C -5.475169 0.201857 1.644443 0 CFG=1
M  V30 29 S 3.267783 -2.181820 -1.490186 0
M  V30 30 O 4.162812 -3.372493 -1.483572 0
M  V30 31 O 2.850228 -2.028643 -2.954833 0
M  V30 32 C 4.260443 -0.775437 -1.124325 0
M  V30 33 C 4.076189 0.411869 -1.832861 0
M  V30 34 C 4.769954 1.567210 -1.653476 0
M  V30 35 C 5.734167 1.570492 -0.695382 0
M  V30 36 N 6.496931 2.741544 -0.454340 0
M  V30 37 C 5.970009 0.413009 0.051301 0
M  V30 38 C 5.247690 -0.745279 -0.155191 0
M  V30 39 H 3.868632 -4.173068 1.084740 0
M  V30 40 H 2.701073 -5.075412 0.027976 0
M  V30 41 H 2.939595 -5.526252 1.707389 0
M  V30 42 H 0.757536 -4.159826 1.331984 0
M  V30 43 H 2.139219 -4.609666 3.347447 0
M  V30 44 H 0.952089 -3.264564 3.391454 0
M  V30 45 H 2.762753 -2.914055 3.242393 0
M  V30 46 H 1.048441 -1.747528 1.195892 0
M  V30 47 H 2.804623 -1.818900 1.152286 0
M  V30 48 H 0.170916 -3.485474 -0.486004 0
M  V30 49 H 1.208853 -3.735312 -1.885406 0
M  V30 50 H 0.525289 -1.785826 -3.010499 0
M  V30 51 H -0.682389 -3.746405 -2.961642 0
M  V30 52 H -1.342211 -0.444485 -2.390486 0
M  V30 53 H 1.085861 -0.065632 -0.617866 0
M  V30 54 H 0.827838 0.558298 -2.244031 0
M  V30 55 H -0.779464 2.202037 -2.724218 0
M  V30 56 H -1.925096 4.228008 -1.967243 0
M  V30 57 H -2.182292 4.646496 0.449296 0
M  V30 58 H -1.279785 3.013995 2.109581 0
M  V30 59 H -0.107948 0.941961 1.316588 0
M  V30 60 H -1.226316 -1.464228 0.473970 0
M  V30 61 H -5.478553 -0.464599 -0.383131 0
M  V30 62 H -6.695834 -2.292076 0.194019 0
M  V30 63 H -5.437155 -2.897776 1.327168 0
M  V30 64 H -7.284776 0.300005 2.736940 0
M  V30 65 H -3.952865 -0.158390 4.553206 0
M  V30 66 H -4.076891 -1.478502 3.364336 0
M  V30 67 H -4.274290 1.513585 2.905369 0
M  V30 68 H -3.315056 0.289071 2.025955 0
M  V30 69 H -5.804737 1.138083 1.184450 0
M  V30 70 H 3.296610 0.405292 -2.605726 0
M  V30 71 H 4.574416 2.443456 -2.235705 0
M  V30 72 H 6.000227 3.657438 -0.581792 0
M  V30 73 H 7.496393 2.819728 -0.164072 0
M  V30 74 H 6.751259 0.422929 0.824352 0
M  V30 75 H 5.400794 -1.659536 0.401604 0
M  V30 END ATOM
M  V30 BEGIN BOND
M  V30 1 1 1 2
M  V30 2 1 2 3
M  V30 3 1 2 4
M  V30 4 1 4 5
M  V30 5 1 5 6
M  V30 6 1 6 7
M  V30 7 1 7 8
M  V30 8 1 7 9
M  V30 9 1 9 10
M  V30 10 1 10 11
M  V30 11 2 11 12
M  V30 12 1 12 13
M  V30 13 2 13 14
M  V30 14 1 14 15
M  V30 15 2 15 16
M  V30 16 1 9 17
M  V30 17 1 17 18
M  V30 18 2 18 19
M  V30 19 1 18 20
M  V30 20 1 20 21
M  V30 21 1 21 22
M  V30 22 1 22 23
M  V30 23 1 23 24
M  V30 24 1 24 25
M  V30 25 1 25 26
M  V30 26 1 26 27
M  V30 27 1 27 28
M  V30 28 1 5 29
M  V30 29 2 29 30
M  V30 30 2 29 31
M  V30 31 1 29 32
M  V30 32 2 32 33
M  V30 33 1 33 34
M  V30 34 2 34 35
M  V30 35 1 35 36
M  V30 36 1 35 37
M  V30 37 2 37 38
M  V30 38 1 16 11
M  V30 39 1 28 21
M  V30 40 1 38 32
M  V30 41 1 28 24
M  V30 42 1 1 39
M  V30 43 1 1 40
M  V30 44 1 1 41
M  V30 45 1 2 42
M  V30 46 1 3 43
M  V30 47 1 3 44
M  V30 48 1 3 45
M  V30 49 1 4 46
M  V30 50 1 4 47
M  V30 51 1 6 48
M  V30 52 1 6 49
M  V30 53 1 7 50 CFG=3
M  V30 54 1 8 51
M  V30 55 1 9 52 CFG=3
M  V30 56 1 10 53
M  V30 57 1 10 54
M  V30 58 1 12 55
M  V30 59 1 13 56
M  V30 60 1 14 57
M  V30 61 1 15 58
M  V30 62 1 16 59
M  V30 63 1 17 60
M  V30 64 1 21 61 CFG=3
M  V30 65 1 22 62
M  V30 66 1 22 63
M  V30 67 1 24 64 CFG=1
M  V30 68 1 26 65
M  V30 69 1 26 66
M  V30 70 1 27 67
M  V30 71 1 27 68
M  V30 72 1 28 69 CFG=3
M  V30 73 1 33 70
M  V30 74 1 34 71
M  V30 75 1 36 72
M  V30 76 1 36 73
M  V30 77 1 37 74
M  V30 78 1 38 75
M  V30 END BOND
M  V30 END CTAB
M  END
>  <Dataset>  (248) 
OralDrugs

>  <Ligand_Instance>  (248) 
nan

>  <PDB_ID>  (248) 
nan

>  <Standardized_SMILES>  (248) 
CC(C)CN(C[C@@H](O)[C@H](Cc1ccccc1)NC(=O)O[C@H]1CO[C@H]2OCC[C@H]21)S(=O)(=O)c1ccc(N)cc1

>  <Name>  (248) 
Darunavir

>  <Pocket>  (248) 
nan

>  <ATP_Site>  (248) 
nan

>  <Peripheral>  (248) 
nan

>  <Num_H_Atoms_ProtBoundConf>  (248) 
nan

>  <Num_Resolved_Atoms>  (248) 
nan

>  <Num_Not_Resolved_Atoms>  (248) 
nan

$$$$
CHEMBL3137312
     RDKit          3D

  0  0  0  0  0  0  0  0  0  0999 V3000
M  V30 BEGIN CTAB
M  V30 COUNTS 62 65 0 0 0
M  V30 BEGIN ATOM
M  V30 1 C -1.323282 0.953025 2.386559 0
M  V30 2 O -1.646724 0.312492 1.166455 0
M  V30 3 C -1.638637 -1.029901 0.954909 0
M  V30 4 C -0.459729 -1.606126 0.529357 0
M  V30 5 C 0.751877 -0.816732 0.307886 0
M  V30 6 C 1.978819 -1.277585 0.785778 0
M  V30 7 C 3.095968 -0.485187 0.545619 0
M  V30 8 C 3.004343 0.710101 -0.136863 0
M  V30 9 C 4.127512 1.497846 -0.373336 0
M  V30 10 C 4.055299 2.703363 -1.058009 0
M  V30 11 N 5.206528 3.504708 -1.296998 0
M  V30 12 S 5.114109 5.200678 -1.026347 0
M  V30 13 C 4.748331 5.459566 0.687615 0
M  V30 14 O 6.460904 5.798468 -1.302475 0
M  V30 15 O 4.132606 5.874314 -1.933566 0
M  V30 16 C 2.798259 3.106305 -1.509063 0
M  V30 17 C 1.682110 2.328935 -1.277105 0
M  V30 18 C 1.769032 1.132645 -0.594920 0
M  V30 19 C 0.633572 0.376984 -0.378529 0
M  V30 20 C -0.334553 -2.957870 0.282591 0
M  V30 21 C -1.456905 -3.739884 0.479911 0
M  V30 22 N -1.383730 -5.134260 0.241418 0
M  V30 23 C -1.416470 -5.401543 -1.092243 0
M  V30 24 C -1.354950 -6.726123 -1.539091 0
M  V30 25 C -1.261520 -7.709208 -0.555059 0
M  V30 26 O -1.201287 -8.939740 -0.884995 0
M  V30 27 N -1.231450 -7.414713 0.749020 0
M  V30 28 C -1.292837 -6.116762 1.156399 0
M  V30 29 O -1.275737 -5.681331 2.331106 0
M  V30 30 C -2.621800 -3.136259 0.905667 0
M  V30 31 C -2.754546 -1.766253 1.157330 0
M  V30 32 C -4.073672 -1.259539 1.606245 0
M  V30 33 C -4.550132 -0.250223 0.581604 0
M  V30 34 C -4.080720 -0.603977 2.940046 0
M  V30 35 C -5.106831 -2.384137 1.606100 0
M  V30 36 H -0.376866 1.534498 2.306363 0
M  V30 37 H -1.304484 0.251428 3.231627 0
M  V30 38 H -2.104600 1.733193 2.560737 0
M  V30 39 H 2.043888 -2.207078 1.315395 0
M  V30 40 H 4.090698 -0.796829 0.898520 0
M  V30 41 H 5.090907 1.181930 -0.023708 0
M  V30 42 H 6.055245 2.986302 -1.631640 0
M  V30 43 H 4.071032 4.710300 1.104729 0
M  V30 44 H 4.338592 6.503993 0.814596 0
M  V30 45 H 5.722542 5.403303 1.237739 0
M  V30 46 H 2.676294 4.046891 -2.055103 0
M  V30 47 H 0.712720 2.631517 -1.620404 0
M  V30 48 H -0.338249 0.696946 -0.731941 0
M  V30 49 H 0.571488 -3.425185 -0.048301 0
M  V30 50 H -1.487291 -4.688823 -1.890675 0
M  V30 51 H -1.374820 -7.027961 -2.574065 0
M  V30 52 H -1.163007 -8.105044 1.517933 0
M  V30 53 H -3.473951 -3.797003 1.045034 0
M  V30 54 H -3.666768 0.147945 0.029174 0
M  V30 55 H -5.000372 0.642484 1.082300 0
M  V30 56 H -5.277411 -0.711473 -0.098648 0
M  V30 57 H -5.069185 -0.849704 3.432371 0
M  V30 58 H -3.328707 -0.945240 3.655478 0
M  V30 59 H -4.145236 0.518233 2.838480 0
M  V30 60 H -6.076167 -1.860544 1.838483 0
M  V30 61 H -4.851451 -3.094462 2.391015 0
M  V30 62 H -5.229779 -2.823931 0.615201 0
M  V30 END ATOM
M  V30 BEGIN BOND
M  V30 1 1 1 2
M  V30 2 1 2 3
M  V30 3 2 3 4
M  V30 4 1 4 5
M  V30 5 2 5 6
M  V30 6 1 6 7
M  V30 7 2 7 8
M  V30 8 1 8 9
M  V30 9 2 9 10
M  V30 10 1 10 11
M  V30 11 1 11 12
M  V30 12 1 12 13
M  V30 13 2 12 14
M  V30 14 2 12 15
M  V30 15 1 10 16
M  V30 16 2 16 17
M  V30 17 1 17 18
M  V30 18 2 18 19
M  V30 19 1 4 20
M  V30 20 2 20 21
M  V30 21 1 21 22
M  V30 22 1 22 23
M  V30 23 2 23 24
M  V30 24 1 24 25
M  V30 25 2 25 26
M  V30 26 1 25 27
M  V30 27 1 27 28
M  V30 28 2 28 29
M  V30 29 1 21 30
M  V30 30 2 30 31
M  V30 31 1 31 32
M  V30 32 1 32 33
M  V30 33 1 32 34
M  V30 34 1 32 35
M  V30 35 1 31 3
M  V30 36 1 19 5
M  V30 37 1 28 22
M  V30 38 1 18 8
M  V30 39 1 1 36
M  V30 40 1 1 37
M  V30 41 1 1 38
M  V30 42 1 6 39
M  V30 43 1 7 40
M  V30 44 1 9 41
M  V30 45 1 11 42
M  V30 46 1 13 43
M  V30 47 1 13 44
M  V30 48 1 13 45
M  V30 49 1 16 46
M  V30 50 1 17 47
M  V30 51 1 19 48
M  V30 52 1 20 49
M  V30 53 1 23 50
M  V30 54 1 24 51
M  V30 55 1 27 52
M  V30 56 1 30 53
M  V30 57 1 33 54
M  V30 58 1 33 55
M  V30 59 1 33 56
M  V30 60 1 34 57
M  V30 61 1 34 58
M  V30 62 1 34 59
M  V30 63 1 35 60
M  V30 64 1 35 61
M  V30 65 1 35 62
M  V30 END BOND
M  V30 END CTAB
M  END
>  <Dataset>  (249) 
OralDrugs

>  <Ligand_Instance>  (249) 
nan

>  <PDB_ID>  (249) 
nan

>  <Standardized_SMILES>  (249) 
COc1c(-c2ccc3cc(NS(C)(=O)=O)ccc3c2)cc(-n2ccc(=O)[nH]c2=O)cc1C(C)(C)C

>  <Name>  (249) 
Dasabuvir

>  <Pocket>  (249) 
nan

>  <ATP_Site>  (249) 
nan

>  <Peripheral>  (249) 
nan

>  <Num_H_Atoms_ProtBoundConf>  (249) 
nan

>  <Num_Resolved_Atoms>  (249) 
nan

>  <Num_Not_Resolved_Atoms>  (249) 
nan

$$$$
CHEMBL1421
     RDKit          3D

  0  0  0  0  0  0  0  0  0  0999 V3000
M  V30 BEGIN CTAB
M  V30 COUNTS 59 62 0 0 0
M  V30 BEGIN ATOM
M  V30 1 C 5.118715 -3.518302 2.876733 0
M  V30 2 C 3.686876 -3.154878 2.981906 0
M  V30 3 N 3.415763 -2.038973 3.695881 0
M  V30 4 C 2.135440 -1.612162 3.863153 0
M  V30 5 N 1.797722 -0.425742 4.594362 0
M  V30 6 C 1.381269 0.526473 3.547759 0
M  V30 7 N 0.237086 0.564033 3.352904 0
M  V30 8 C -0.453109 1.288965 2.498930 0
M  V30 9 C 0.261794 2.112391 1.732670 0
M  V30 10 C -0.030731 3.106333 0.637634 0
M  V30 11 O 0.941277 3.705971 0.131125 0
M  V30 12 N -1.389552 3.217949 0.336063 0
M  V30 13 C -1.627993 4.169335 -0.713683 0
M  V30 14 C -1.614282 3.498417 -1.940509 0
M  V30 15 C -1.409665 2.043689 -2.179153 0
M  V30 16 C -1.813857 4.195700 -3.124209 0
M  V30 17 C -2.026030 5.557190 -3.083878 0
M  V30 18 C -2.035689 6.194857 -1.870403 0
M  V30 19 C -1.841050 5.530697 -0.680791 0
M  V30 20 Cl -1.824440 6.178057 0.927927 0
M  V30 21 S 1.982421 1.776447 2.320137 0
M  V30 22 C 1.123259 -2.346853 3.285248 0
M  V30 23 C 1.411274 -3.478088 2.561257 0
M  V30 24 N 0.389045 -4.241460 1.942870 0
M  V30 25 C -1.014773 -3.978846 1.896224 0
M  V30 26 C -1.580029 -3.914008 0.493123 0
M  V30 27 N -0.729388 -4.383302 -0.530449 0
M  V30 28 C -0.371763 -3.422372 -1.510111 0
M  V30 29 C -1.549734 -3.043632 -2.343830 0
M  V30 30 O -1.173297 -2.089871 -3.315960 0
M  V30 31 C 0.228843 -5.373091 -0.222693 0
M  V30 32 C 0.628649 -5.469360 1.225681 0
M  V30 33 N 2.688800 -3.868448 2.419003 0
M  V30 34 H 5.775783 -2.629790 2.997764 0
M  V30 35 H 5.348190 -4.190097 3.742758 0
M  V30 36 H 5.365551 -4.043152 1.913188 0
M  V30 37 H 1.767854 -0.075918 5.571617 0
M  V30 38 H -1.535469 1.357644 2.281520 0
M  V30 39 H -2.140432 2.674745 0.817041 0
M  V30 40 H -1.480536 1.527673 -1.215808 0
M  V30 41 H -2.270898 1.632039 -2.785074 0
M  V30 42 H -0.462038 1.902452 -2.699239 0
M  V30 43 H -1.818894 3.761896 -4.115668 0
M  V30 44 H -2.183599 6.134457 -3.994572 0
M  V30 45 H -2.197565 7.270709 -1.749656 0
M  V30 46 H 0.113213 -1.989001 3.429424 0
M  V30 47 H -1.523469 -4.842648 2.420957 0
M  V30 48 H -1.290397 -3.021773 2.397669 0
M  V30 49 H -2.576198 -4.445457 0.461067 0
M  V30 50 H -1.857784 -2.853058 0.229569 0
M  V30 51 H 0.465179 -3.797546 -2.136437 0
M  V30 52 H 0.026658 -2.528155 -0.984121 0
M  V30 53 H -2.314664 -2.560718 -1.719499 0
M  V30 54 H -2.003291 -3.929534 -2.808009 0
M  V30 55 H -0.194043 -2.037866 -3.376811 0
M  V30 56 H -0.171561 -6.372895 -0.550013 0
M  V30 57 H 1.121980 -5.214872 -0.881450 0
M  V30 58 H 1.708007 -5.751931 1.261228 0
M  V30 59 H 0.054442 -6.299260 1.697176 0
M  V30 END ATOM
M  V30 BEGIN BOND
M  V30 1 1 1 2
M  V30 2 2 2 3
M  V30 3 1 3 4
M  V30 4 1 4 5
M  V30 5 1 5 6
M  V30 6 2 6 7
M  V30 7 1 7 8
M  V30 8 2 8 9
M  V30 9 1 9 10
M  V30 10 2 10 11
M  V30 11 1 10 12
M  V30 12 1 12 13
M  V30 13 2 13 14
M  V30 14 1 14 15
M  V30 15 1 14 16
M  V30 16 2 16 17
M  V30 17 1 17 18
M  V30 18 2 18 19
M  V30 19 1 19 20
M  V30 20 1 9 21
M  V30 21 2 4 22
M  V30 22 1 22 23
M  V30 23 1 23 24
M  V30 24 1 24 25
M  V30 25 1 25 26
M  V30 26 1 26 27
M  V30 27 1 27 28
M  V30 28 1 28 29
M  V30 29 1 29 30
M  V30 30 1 27 31
M  V30 31 1 31 32
M  V30 32 2 23 33
M  V30 33 1 33 2
M  V30 34 1 21 6
M  V30 35 1 32 24
M  V30 36 1 19 13
M  V30 37 1 1 34
M  V30 38 1 1 35
M  V30 39 1 1 36
M  V30 40 1 5 37
M  V30 41 1 8 38
M  V30 42 1 12 39
M  V30 43 1 15 40
M  V30 44 1 15 41
M  V30 45 1 15 42
M  V30 46 1 16 43
M  V30 47 1 17 44
M  V30 48 1 18 45
M  V30 49 1 22 46
M  V30 50 1 25 47
M  V30 51 1 25 48
M  V30 52 1 26 49
M  V30 53 1 26 50
M  V30 54 1 28 51
M  V30 55 1 28 52
M  V30 56 1 29 53
M  V30 57 1 29 54
M  V30 58 1 30 55
M  V30 59 1 31 56
M  V30 60 1 31 57
M  V30 61 1 32 58
M  V30 62 1 32 59
M  V30 END BOND
M  V30 END CTAB
M  END
>  <Dataset>  (250) 
OralDrugs

>  <Ligand_Instance>  (250) 
nan

>  <PDB_ID>  (250) 
nan

>  <Standardized_SMILES>  (250) 
Cc1nc(Nc2ncc(C(=O)Nc3c(C)cccc3Cl)s2)cc(N2CCN(CCO)CC2)n1

>  <Name>  (250) 
Dasatinib

>  <Pocket>  (250) 
nan

>  <ATP_Site>  (250) 
nan

>  <Peripheral>  (250) 
nan

>  <Num_H_Atoms_ProtBoundConf>  (250) 
nan

>  <Num_Resolved_Atoms>  (250) 
nan

>  <Num_Not_Resolved_Atoms>  (250) 
nan

$$$$
CHEMBL1201129
     RDKit          3D

  0  0  0  0  0  0  0  0  0  0999 V3000
M  V30 BEGIN CTAB
M  V30 COUNTS 28 29 0 0 0
M  V30 BEGIN ATOM
M  V30 1 N -2.484309 -5.207421 1.543364 0
M  V30 2 C -1.792930 -3.999735 1.253377 0
M  V30 3 N -2.536092 -2.913644 0.940684 0
M  V30 4 C -1.891914 -1.774515 0.666860 0
M  V30 5 N -0.531865 -1.677970 0.693295 0
M  V30 6 C -0.026798 -0.366762 0.369116 0 CFG=1
M  V30 7 C -0.031938 0.567763 1.548815 0
M  V30 8 C 1.330032 1.255937 1.389124 0 CFG=2
M  V30 9 O 1.290550 2.593518 1.718883 0
M  V30 10 C 1.571549 0.992678 -0.080081 0 CFG=1
M  V30 11 C 2.979740 1.310524 -0.495978 0
M  V30 12 O 3.235881 2.665930 -0.456848 0
M  V30 13 O 1.291772 -0.391610 -0.115258 0
M  V30 14 C 0.184497 -2.774779 1.007775 0
M  V30 15 O 1.435349 -2.621388 1.015170 0
M  V30 16 N -0.450043 -3.942523 1.289461 0
M  V30 17 H -3.351517 -5.556855 1.066455 0
M  V30 18 H -2.054333 -5.786630 2.322612 0
M  V30 19 H -2.536011 -0.930090 0.421225 0
M  V30 20 H -0.622033 0.041329 -0.484896 0
M  V30 21 H -0.154641 0.087200 2.519754 0
M  V30 22 H -0.808542 1.357685 1.341089 0
M  V30 23 H 2.055516 0.656899 1.978731 0
M  V30 24 H 1.936397 2.817745 2.460256 0
M  V30 25 H 0.808314 1.508481 -0.659208 0
M  V30 26 H 3.675254 0.811025 0.224797 0
M  V30 27 H 3.221330 0.883460 -1.478525 0
M  V30 28 H 2.462392 3.140760 -0.897438 0
M  V30 END ATOM
M  V30 BEGIN BOND
M  V30 1 1 1 2
M  V30 2 1 2 3
M  V30 3 2 3 4
M  V30 4 1 4 5
M  V30 5 1 5 6
M  V30 6 1 6 7
M  V30 7 1 7 8
M  V30 8 1 8 9
M  V30 9 1 8 10
M  V30 10 1 10 11
M  V30 11 1 11 12
M  V30 12 1 10 13
M  V30 13 1 5 14
M  V30 14 2 14 15
M  V30 15 1 14 16
M  V30 16 2 16 2
M  V30 17 1 13 6
M  V30 18 1 1 17
M  V30 19 1 1 18
M  V30 20 1 4 19
M  V30 21 1 6 20 CFG=3
M  V30 22 1 7 21
M  V30 23 1 7 22
M  V30 24 1 8 23 CFG=1
M  V30 25 1 9 24
M  V30 26 1 10 25 CFG=3
M  V30 27 1 11 26
M  V30 28 1 11 27
M  V30 29 1 12 28
M  V30 END BOND
M  V30 END CTAB
M  END
>  <Dataset>  (251) 
OralDrugs

>  <Ligand_Instance>  (251) 
nan

>  <PDB_ID>  (251) 
nan

>  <Standardized_SMILES>  (251) 
Nc1ncn([C@H]2C[C@H](O)[C@@H](CO)O2)c(=O)n1

>  <Name>  (251) 
Decitabine

>  <Pocket>  (251) 
nan

>  <ATP_Site>  (251) 
nan

>  <Peripheral>  (251) 
nan

>  <Num_H_Atoms_ProtBoundConf>  (251) 
nan

>  <Num_Resolved_Atoms>  (251) 
nan

>  <Num_Not_Resolved_Atoms>  (251) 
nan

$$$$
CHEMBL550348
     RDKit          3D

  0  0  0  0  0  0  0  0  0  0999 V3000
M  V30 BEGIN CTAB
M  V30 COUNTS 43 46 0 0 0
M  V30 BEGIN ATOM
M  V30 1 O 3.718371 -3.344079 5.714692 0
M  V30 2 C 3.495166 -3.770906 4.552342 0
M  V30 3 O 3.990012 -5.014974 4.211983 0
M  V30 4 C 2.735832 -2.950112 3.625287 0
M  V30 5 C 2.278516 -1.718754 4.048720 0
M  V30 6 C 1.554072 -0.912603 3.194932 0
M  V30 7 C 1.258382 -1.307178 1.882464 0
M  V30 8 N 0.531423 -0.530364 0.949149 0
M  V30 9 N 1.320999 0.270616 0.218453 0
M  V30 10 C 0.550120 0.969116 -0.638375 0
M  V30 11 C 0.826963 1.973344 -1.661677 0
M  V30 12 C -0.110004 2.596073 -2.462824 0
M  V30 13 C 0.331843 3.529019 -3.385617 0
M  V30 14 C 1.673433 3.841092 -3.514831 0
M  V30 15 C 2.627030 3.223767 -2.716914 0
M  V30 16 C 2.176979 2.298102 -1.803072 0
M  V30 17 O 3.163732 1.705162 -1.026023 0
M  V30 18 N -0.709717 0.568338 -0.402914 0
M  V30 19 C -0.739580 -0.352623 0.569365 0
M  V30 20 C -1.834263 -1.082680 1.178954 0
M  V30 21 C -1.838709 -2.023243 2.176520 0
M  V30 22 C -2.972889 -2.622232 2.641062 0
M  V30 23 C -4.216855 -2.308919 2.120794 0
M  V30 24 C -4.223162 -1.361829 1.114672 0
M  V30 25 C -3.072393 -0.760247 0.649875 0
M  V30 26 O -3.251046 0.184543 -0.379839 0
M  V30 27 C 1.757908 -2.568761 1.531083 0
M  V30 28 C 2.486268 -3.410024 2.348550 0
M  V30 29 H 4.082754 -5.776332 4.895801 0
M  V30 30 H 2.474192 -1.356336 5.052178 0
M  V30 31 H 1.184862 0.044407 3.487433 0
M  V30 32 H -1.140410 2.305810 -2.309929 0
M  V30 33 H -0.454319 3.985702 -3.988010 0
M  V30 34 H 1.913719 4.592739 -4.275658 0
M  V30 35 H 3.663045 3.491647 -2.845219 0
M  V30 36 H 3.576888 2.164041 -0.223664 0
M  V30 37 H -0.889363 -2.263103 2.574350 0
M  V30 38 H -2.854915 -3.353786 3.435309 0
M  V30 39 H -5.087829 -2.789254 2.499139 0
M  V30 40 H -5.178687 -1.110220 0.703428 0
M  V30 41 H -3.178734 -0.186537 -1.338050 0
M  V30 42 H 1.534529 -2.888408 0.510800 0
M  V30 43 H 2.820803 -4.359395 1.974075 0
M  V30 END ATOM
M  V30 BEGIN BOND
M  V30 1 2 1 2
M  V30 2 1 2 3
M  V30 3 1 2 4
M  V30 4 2 4 5
M  V30 5 1 5 6
M  V30 6 2 6 7
M  V30 7 1 7 8
M  V30 8 1 8 9
M  V30 9 2 9 10
M  V30 10 1 10 11
M  V30 11 2 11 12
M  V30 12 1 12 13
M  V30 13 2 13 14
M  V30 14 1 14 15
M  V30 15 2 15 16
M  V30 16 1 16 17
M  V30 17 1 10 18
M  V30 18 2 18 19
M  V30 19 1 19 20
M  V30 20 2 20 21
M  V30 21 1 21 22
M  V30 22 2 22 23
M  V30 23 1 23 24
M  V30 24 2 24 25
M  V30 25 1 25 26
M  V30 26 1 7 27
M  V30 27 2 27 28
M  V30 28 1 28 4
M  V30 29 1 19 8
M  V30 30 1 25 20
M  V30 31 1 16 11
M  V30 32 1 3 29
M  V30 33 1 5 30
M  V30 34 1 6 31
M  V30 35 1 12 32
M  V30 36 1 13 33
M  V30 37 1 14 34
M  V30 38 1 15 35
M  V30 39 1 17 36
M  V30 40 1 21 37
M  V30 41 1 22 38
M  V30 42 1 23 39
M  V30 43 1 24 40
M  V30 44 1 26 41
M  V30 45 1 27 42
M  V30 46 1 28 43
M  V30 END BOND
M  V30 END CTAB
M  END
>  <Dataset>  (252) 
OralDrugs

>  <Ligand_Instance>  (252) 
nan

>  <PDB_ID>  (252) 
nan

>  <Standardized_SMILES>  (252) 
O=C(O)c1ccc(-n2nc(-c3ccccc3O)nc2-c2ccccc2O)cc1

>  <Name>  (252) 
Deferasirox

>  <Pocket>  (252) 
nan

>  <ATP_Site>  (252) 
nan

>  <Peripheral>  (252) 
nan

>  <Num_H_Atoms_ProtBoundConf>  (252) 
nan

>  <Num_Resolved_Atoms>  (252) 
nan

>  <Num_Not_Resolved_Atoms>  (252) 
nan

$$$$
CHEMBL70927
     RDKit          3D

  0  0  0  0  0  0  0  0  0  0999 V3000
M  V30 BEGIN CTAB
M  V30 COUNTS 19 19 0 0 0
M  V30 BEGIN ATOM
M  V30 1 C -0.992024 -0.593842 1.393460 0
M  V30 2 C 0.404875 -0.132899 1.201839 0
M  V30 3 C 1.239317 0.107534 2.274464 0
M  V30 4 O 0.769537 -0.083580 3.566463 0
M  V30 5 C 2.545605 0.539337 2.069468 0
M  V30 6 O 3.247461 0.738597 3.072706 0
M  V30 7 C 3.015084 0.730707 0.765487 0
M  V30 8 C 2.113641 0.466388 -0.237573 0
M  V30 9 N 0.847367 0.048322 -0.056037 0
M  V30 10 C -0.039102 -0.207441 -1.183791 0
M  V30 11 H -1.732243 0.165828 1.007029 0
M  V30 12 H -1.248943 -0.709886 2.456742 0
M  V30 13 H -1.220184 -1.539991 0.892205 0
M  V30 14 H 1.012679 -1.000609 3.969274 0
M  V30 15 H 4.021599 1.063701 0.598328 0
M  V30 16 H 2.480758 0.615609 -1.243193 0
M  V30 17 H 0.260355 0.425788 -2.029779 0
M  V30 18 H 0.156925 -1.278376 -1.472504 0
M  V30 19 H -1.084209 -0.063558 -0.913662 0
M  V30 END ATOM
M  V30 BEGIN BOND
M  V30 1 1 1 2
M  V30 2 2 2 3
M  V30 3 1 3 4
M  V30 4 1 3 5
M  V30 5 2 5 6
M  V30 6 1 5 7
M  V30 7 2 7 8
M  V30 8 1 8 9
M  V30 9 1 9 10
M  V30 10 1 9 2
M  V30 11 1 1 11
M  V30 12 1 1 12
M  V30 13 1 1 13
M  V30 14 1 4 14
M  V30 15 1 7 15
M  V30 16 1 8 16
M  V30 17 1 10 17
M  V30 18 1 10 18
M  V30 19 1 10 19
M  V30 END BOND
M  V30 END CTAB
M  END
>  <Dataset>  (253) 
OralDrugs

>  <Ligand_Instance>  (253) 
nan

>  <PDB_ID>  (253) 
nan

>  <Standardized_SMILES>  (253) 
Cc1c(O)c(=O)ccn1C

>  <Name>  (253) 
Deferiprone

>  <Pocket>  (253) 
nan

>  <ATP_Site>  (253) 
nan

>  <Peripheral>  (253) 
nan

>  <Num_H_Atoms_ProtBoundConf>  (253) 
nan

>  <Num_Resolved_Atoms>  (253) 
nan

>  <Num_Not_Resolved_Atoms>  (253) 
nan

$$$$
CHEMBL2105637
     RDKit          3D

  0  0  0  0  0  0  0  0  0  0999 V3000
M  V30 BEGIN CTAB
M  V30 COUNTS 42 45 0 0 0
M  V30 BEGIN ATOM
M  V30 1 N -3.823520 -2.477075 1.980389 0
M  V30 2 C -2.968296 -2.491192 0.836450 0
M  V30 3 N -2.261459 -1.347995 0.762818 0
M  V30 4 C -1.367812 -1.112159 -0.243644 0
M  V30 5 N -0.609286 0.082333 -0.375793 0
M  V30 6 C -1.256432 1.007404 -1.146852 0
M  V30 7 C -0.723902 2.250154 -1.423251 0
M  V30 8 C -1.416111 3.235664 -2.246317 0
M  V30 9 O -0.864372 4.346295 -2.452466 0
M  V30 10 O -2.659393 3.008937 -2.816652 0
M  V30 11 C 0.510984 2.609787 -0.917744 0
M  V30 12 O 1.081668 3.696207 -1.102402 0
M  V30 13 C 1.148439 1.663762 -0.142414 0
M  V30 14 C 2.394669 1.874902 0.436707 0
M  V30 15 C 3.018271 0.912281 1.212042 0
M  V30 16 F 4.223184 1.233729 1.718646 0
M  V30 17 C 2.404470 -0.322781 1.440891 0
M  V30 18 N 3.159168 -1.211794 2.253814 0
M  V30 19 C 4.152159 -2.262115 2.296060 0
M  V30 20 C 3.757633 -2.641812 3.706737 0
M  V30 21 O 4.815887 -2.761932 4.588465 0
M  V30 22 C 3.076276 -1.294996 3.719101 0
M  V30 23 C 1.172840 -0.555643 0.879565 0
M  V30 24 Cl 0.469749 -2.100080 1.200587 0
M  V30 25 C 0.591342 0.431337 0.115975 0
M  V30 26 C -1.209603 -2.114563 -1.209854 0
M  V30 27 F -0.346461 -1.990044 -2.259588 0
M  V30 28 C -1.936508 -3.284769 -1.129849 0
M  V30 29 C -2.833368 -3.477634 -0.087012 0
M  V30 30 F -3.608180 -4.575304 0.111064 0
M  V30 31 H -3.497253 -2.494187 2.979982 0
M  V30 32 H -4.869854 -2.449788 2.150734 0
M  V30 33 H -2.233348 0.853144 -1.605945 0
M  V30 34 H -3.328318 3.769903 -3.002304 0
M  V30 35 H 2.871113 2.836209 0.257886 0
M  V30 36 H 4.002321 -3.086046 1.592984 0
M  V30 37 H 5.199045 -1.870486 2.246903 0
M  V30 38 H 3.072509 -3.495464 3.803525 0
M  V30 39 H 4.724427 -2.175702 5.376308 0
M  V30 40 H 3.653465 -0.543713 4.267332 0
M  V30 41 H 2.043655 -1.366841 4.099211 0
M  V30 42 H -1.864907 -4.100476 -1.840378 0
M  V30 END ATOM
M  V30 BEGIN BOND
M  V30 1 1 1 2
M  V30 2 2 2 3
M  V30 3 1 3 4
M  V30 4 1 4 5
M  V30 5 1 5 6
M  V30 6 2 6 7
M  V30 7 1 7 8
M  V30 8 2 8 9
M  V30 9 1 8 10
M  V30 10 1 7 11
M  V30 11 2 11 12
M  V30 12 1 11 13
M  V30 13 2 13 14
M  V30 14 1 14 15
M  V30 15 1 15 16
M  V30 16 2 15 17
M  V30 17 1 17 18
M  V30 18 1 18 19
M  V30 19 1 19 20
M  V30 20 1 20 21
M  V30 21 1 20 22
M  V30 22 1 17 23
M  V30 23 1 23 24
M  V30 24 2 23 25
M  V30 25 2 4 26
M  V30 26 1 26 27
M  V30 27 1 26 28
M  V30 28 2 28 29
M  V30 29 1 29 30
M  V30 30 1 29 2
M  V30 31 1 25 5
M  V30 32 1 25 13
M  V30 33 1 22 18
M  V30 34 1 1 31
M  V30 35 1 1 32
M  V30 36 1 6 33
M  V30 37 1 10 34
M  V30 38 1 14 35
M  V30 39 1 19 36
M  V30 40 1 19 37
M  V30 41 1 20 38
M  V30 42 1 21 39
M  V30 43 1 22 40
M  V30 44 1 22 41
M  V30 45 1 28 42
M  V30 END BOND
M  V30 END CTAB
M  END
>  <Dataset>  (254) 
OralDrugs

>  <Ligand_Instance>  (254) 
nan

>  <PDB_ID>  (254) 
nan

>  <Standardized_SMILES>  (254) 
Nc1nc(-n2cc(C(=O)O)c(=O)c3cc(F)c(N4CC(O)C4)c(Cl)c32)c(F)cc1F

>  <Name>  (254) 
Delafloxacin

>  <Pocket>  (254) 
nan

>  <ATP_Site>  (254) 
nan

>  <Peripheral>  (254) 
nan

>  <Num_H_Atoms_ProtBoundConf>  (254) 
nan

>  <Num_Resolved_Atoms>  (254) 
nan

>  <Num_Not_Resolved_Atoms>  (254) 
nan

$$$$
CHEMBL593
     RDKit          3D

  0  0  0  0  0  0  0  0  0  0999 V3000
M  V30 BEGIN CTAB
M  V30 COUNTS 60 63 0 0 0
M  V30 BEGIN ATOM
M  V30 1 C 3.314240 0.679963 5.107351 0
M  V30 2 C 2.973288 -0.083956 3.859407 0
M  V30 3 C 2.031198 -1.230091 4.140334 0
M  V30 4 N 2.534392 0.756532 2.762468 0
M  V30 5 C 3.480393 1.673462 2.235158 0
M  V30 6 C 4.752853 1.778126 2.691398 0
M  V30 7 C 5.619799 2.697259 2.101832 0
M  V30 8 C 5.106950 3.446603 1.076548 0
M  V30 9 N 3.833805 3.341594 0.619625 0
M  V30 10 C 2.989242 2.439185 1.202553 0
M  V30 11 N 1.694535 2.477413 0.615148 0
M  V30 12 C 0.611602 2.904816 1.466449 0
M  V30 13 C -0.599933 2.088214 1.234095 0
M  V30 14 N -0.524540 1.139577 0.183414 0
M  V30 15 C -1.382916 0.024499 0.346236 0
M  V30 16 O -1.977362 0.253189 1.443617 0
M  V30 17 C -1.776769 -1.215981 -0.295387 0
M  V30 18 C -2.372124 -1.389593 -1.527686 0
M  V30 19 C -2.548028 -2.748138 -1.672183 0
M  V30 20 C -3.087127 -3.533280 -2.673145 0
M  V30 21 C -3.110836 -4.911087 -2.482414 0
M  V30 22 N -3.661144 -5.748962 -3.491756 0
M  V30 23 S -5.143469 -5.329361 -4.237865 0
M  V30 24 C -6.503308 -5.258668 -3.093989 0
M  V30 25 O -5.018805 -4.044085 -4.998702 0
M  V30 26 O -5.473562 -6.404021 -5.264071 0
M  V30 27 C -2.614599 -5.514700 -1.330144 0
M  V30 28 C -2.084663 -4.695291 -0.354773 0
M  V30 29 C -2.042973 -3.323582 -0.505658 0
M  V30 30 N -1.569048 -2.383664 0.339826 0
M  V30 31 C 0.325753 1.285269 -0.943678 0
M  V30 32 C 1.552294 2.099081 -0.769341 0
M  V30 33 H 2.503606 0.468659 5.853672 0
M  V30 34 H 4.248688 0.260860 5.546556 0
M  V30 35 H 3.340616 1.777147 4.985840 0
M  V30 36 H 3.917694 -0.576839 3.467222 0
M  V30 37 H 1.507749 -1.569296 3.216279 0
M  V30 38 H 1.303619 -1.026113 4.945441 0
M  V30 39 H 2.605657 -2.147030 4.472493 0
M  V30 40 H 1.553260 0.601489 2.464203 0
M  V30 41 H 5.101048 1.171368 3.491805 0
M  V30 42 H 6.621756 2.765575 2.477041 0
M  V30 43 H 5.792404 4.165481 0.618389 0
M  V30 44 H 0.384754 3.958990 1.143056 0
M  V30 45 H 0.916543 2.931454 2.533775 0
M  V30 46 H -1.505260 2.760010 1.152951 0
M  V30 47 H -0.800221 1.537573 2.203571 0
M  V30 48 H -2.644341 -0.616056 -2.234862 0
M  V30 49 H -3.468774 -3.051253 -3.562555 0
M  V30 50 H -3.135281 -6.598266 -3.742911 0
M  V30 51 H -6.794597 -4.182565 -2.981377 0
M  V30 52 H -7.392643 -5.838396 -3.453710 0
M  V30 53 H -6.237070 -5.668577 -2.099152 0
M  V30 54 H -2.634554 -6.590383 -1.187321 0
M  V30 55 H -1.699476 -5.161026 0.541013 0
M  V30 56 H -1.148145 -2.578122 1.264733 0
M  V30 57 H -0.268895 1.676322 -1.826933 0
M  V30 58 H 0.616908 0.254723 -1.290400 0
M  V30 59 H 2.449731 1.595953 -1.168040 0
M  V30 60 H 1.492759 3.063032 -1.350577 0
M  V30 END ATOM
M  V30 BEGIN BOND
M  V30 1 1 1 2
M  V30 2 1 2 3
M  V30 3 1 2 4
M  V30 4 1 4 5
M  V30 5 2 5 6
M  V30 6 1 6 7
M  V30 7 2 7 8
M  V30 8 1 8 9
M  V30 9 2 9 10
M  V30 10 1 10 11
M  V30 11 1 11 12
M  V30 12 1 12 13
M  V30 13 1 13 14
M  V30 14 1 14 15
M  V30 15 2 15 16
M  V30 16 1 15 17
M  V30 17 2 17 18
M  V30 18 1 18 19
M  V30 19 2 19 20
M  V30 20 1 20 21
M  V30 21 1 21 22
M  V30 22 1 22 23
M  V30 23 1 23 24
M  V30 24 2 23 25
M  V30 25 2 23 26
M  V30 26 2 21 27
M  V30 27 1 27 28
M  V30 28 2 28 29
M  V30 29 1 29 30
M  V30 30 1 14 31
M  V30 31 1 31 32
M  V30 32 1 10 5
M  V30 33 1 32 11
M  V30 34 1 30 17
M  V30 35 1 29 19
M  V30 36 1 1 33
M  V30 37 1 1 34
M  V30 38 1 1 35
M  V30 39 1 2 36
M  V30 40 1 3 37
M  V30 41 1 3 38
M  V30 42 1 3 39
M  V30 43 1 4 40
M  V30 44 1 6 41
M  V30 45 1 7 42
M  V30 46 1 8 43
M  V30 47 1 12 44
M  V30 48 1 12 45
M  V30 49 1 13 46
M  V30 50 1 13 47
M  V30 51 1 18 48
M  V30 52 1 20 49
M  V30 53 1 22 50
M  V30 54 1 24 51
M  V30 55 1 24 52
M  V30 56 1 24 53
M  V30 57 1 27 54
M  V30 58 1 28 55
M  V30 59 1 30 56
M  V30 60 1 31 57
M  V30 61 1 31 58
M  V30 62 1 32 59
M  V30 63 1 32 60
M  V30 END BOND
M  V30 END CTAB
M  END
>  <Dataset>  (255) 
OralDrugs

>  <Ligand_Instance>  (255) 
nan

>  <PDB_ID>  (255) 
nan

>  <Standardized_SMILES>  (255) 
CC(C)Nc1cccnc1N1CCN(C(=O)c2cc3cc(NS(C)(=O)=O)ccc3[nH]2)CC1

>  <Name>  (255) 
Delavirdine

>  <Pocket>  (255) 
nan

>  <ATP_Site>  (255) 
nan

>  <Peripheral>  (255) 
nan

>  <Num_H_Atoms_ProtBoundConf>  (255) 
nan

>  <Num_Resolved_Atoms>  (255) 
nan

>  <Num_Not_Resolved_Atoms>  (255) 
nan

$$$$
CHEMBL1591
     RDKit          3D

  0  0  0  0  0  0  0  0  0  0999 V3000
M  V30 BEGIN CTAB
M  V30 COUNTS 53 56 0 0 0
M  V30 BEGIN ATOM
M  V30 1 C 3.038262 -0.141423 3.459750 0
M  V30 2 N 3.021293 -1.201249 2.504563 0
M  V30 3 C 2.319375 -2.341206 3.044050 0
M  V30 4 C 2.452161 -0.893876 1.229994 0 CFG=2
M  V30 5 C 3.179822 0.225692 0.539613 0
M  V30 6 O 4.560671 0.106134 0.559167 0
M  V30 7 C 2.578137 1.258080 -0.049735 0
M  V30 8 C 3.391942 2.305414 -0.700704 0
M  V30 9 N 4.804563 2.111590 -0.638455 0
M  V30 10 O 2.784274 3.262885 -1.245484 0
M  V30 11 C 1.117504 1.312515 -0.026907 0
M  V30 12 O 0.550851 1.905853 -0.994775 0
M  V30 13 C 0.458044 0.662005 1.135828 0 CFG=1
M  V30 14 O 0.773639 1.390386 2.257638 0
M  V30 15 C -1.024494 0.556174 0.936643 0
M  V30 16 O -1.577621 1.835976 1.146216 0
M  V30 17 C -1.773641 -0.501576 0.619798 0
M  V30 18 C -3.198540 -0.210749 0.513531 0
M  V30 19 O -3.736838 0.831028 0.952006 0
M  V30 20 C -3.970309 -1.249647 -0.158441 0
M  V30 21 C -5.327108 -1.142545 -0.343094 0
M  V30 22 O -5.903153 0.019959 0.150740 0
M  V30 23 C -6.028590 -2.145385 -0.980666 0
M  V30 24 C -5.317472 -3.234546 -1.413081 0
M  V30 25 C -3.960731 -3.319679 -1.217237 0
M  V30 26 Cl -3.269264 -4.810977 -1.859090 0
M  V30 27 C -3.214640 -2.320091 -0.573526 0
M  V30 28 C -1.784010 -2.673554 -0.509326 0 CFG=1
M  V30 29 O -1.166824 -2.540429 -1.768587 0
M  V30 30 C -1.068817 -1.786989 0.432273 0 CFG=1
M  V30 31 C 0.345426 -1.454236 -0.002680 0
M  V30 32 C 0.973777 -0.758848 1.189318 0 CFG=1
M  V30 33 H 2.126830 -0.103989 4.124307 0
M  V30 34 H 3.855414 -0.410833 4.193223 0
M  V30 35 H 3.339495 0.837494 3.068995 0
M  V30 36 H 1.860517 -2.972782 2.242222 0
M  V30 37 H 3.090727 -2.965976 3.544906 0
M  V30 38 H 1.512814 -2.037904 3.756916 0
M  V30 39 H 2.694509 -1.791946 0.582289 0
M  V30 40 H 5.107639 -0.150545 1.369388 0
M  V30 41 H 5.451454 1.470859 -1.156294 0
M  V30 42 H 5.393893 1.449672 -1.187619 0
M  V30 43 H 0.027189 1.917091 2.637026 0
M  V30 44 H -1.709057 2.507572 0.412299 0
M  V30 45 H -5.967860 0.065571 1.178366 0
M  V30 46 H -7.083373 -1.918675 -1.050737 0
M  V30 47 H -5.925460 -3.982439 -1.903489 0
M  V30 48 H -1.671693 -3.755837 -0.264639 0
M  V30 49 H -1.311751 -1.597132 -2.040834 0
M  V30 50 H -0.976962 -2.347035 1.405326 0
M  V30 51 H 0.922602 -2.348930 -0.311443 0
M  V30 52 H 0.256467 -0.731662 -0.846023 0
M  V30 53 H 0.564979 -1.203243 2.124080 0
M  V30 END ATOM
M  V30 BEGIN BOND
M  V30 1 1 1 2
M  V30 2 1 2 3
M  V30 3 1 2 4
M  V30 4 1 4 5
M  V30 5 1 5 6
M  V30 6 2 5 7
M  V30 7 1 7 8
M  V30 8 1 8 9
M  V30 9 2 8 10
M  V30 10 1 7 11
M  V30 11 2 11 12
M  V30 12 1 11 13
M  V30 13 1 13 14 CFG=1
M  V30 14 1 13 15
M  V30 15 1 15 16
M  V30 16 2 15 17
M  V30 17 1 17 18
M  V30 18 2 18 19
M  V30 19 1 18 20
M  V30 20 2 20 21
M  V30 21 1 21 22
M  V30 22 1 21 23
M  V30 23 2 23 24
M  V30 24 1 24 25
M  V30 25 1 25 26
M  V30 26 2 25 27
M  V30 27 1 27 28
M  V30 28 1 28 29
M  V30 29 1 28 30
M  V30 30 1 30 31
M  V30 31 1 31 32
M  V30 32 1 32 4
M  V30 33 1 32 13
M  V30 34 1 30 17
M  V30 35 1 27 20
M  V30 36 1 1 33
M  V30 37 1 1 34
M  V30 38 1 1 35
M  V30 39 1 3 36
M  V30 40 1 3 37
M  V30 41 1 3 38
M  V30 42 1 4 39 CFG=3
M  V30 43 1 6 40
M  V30 44 1 9 41
M  V30 45 1 9 42
M  V30 46 1 14 43
M  V30 47 1 16 44
M  V30 48 1 22 45
M  V30 49 1 23 46
M  V30 50 1 24 47
M  V30 51 1 28 48 CFG=1
M  V30 52 1 29 49
M  V30 53 1 30 50 CFG=1
M  V30 54 1 31 51
M  V30 55 1 31 52
M  V30 56 1 32 53 CFG=1
M  V30 END BOND
M  V30 END CTAB
M  END
>  <Dataset>  (256) 
OralDrugs

>  <Ligand_Instance>  (256) 
nan

>  <PDB_ID>  (256) 
nan

>  <Standardized_SMILES>  (256) 
CN(C)[C@@H]1C(O)=C(C(N)=O)C(=O)[C@@]2(O)C(O)=C3C(=O)c4c(O)ccc(Cl)c4[C@@H](O)[C@H]3C[C@@H]12

>  <Name>  (256) 
Demeclocycline

>  <Pocket>  (256) 
nan

>  <ATP_Site>  (256) 
nan

>  <Peripheral>  (256) 
nan

>  <Num_H_Atoms_ProtBoundConf>  (256) 
nan

>  <Num_Resolved_Atoms>  (256) 
nan

>  <Num_Not_Resolved_Atoms>  (256) 
nan

$$$$
CHEMBL1200515
     RDKit          3D

  0  0  0  0  0  0  0  0  0  0999 V3000
M  V30 BEGIN CTAB
M  V30 COUNTS 80 85 0 0 0
M  V30 BEGIN ATOM
M  V30 1 C -1.271970 1.617710 6.095779 0
M  V30 2 O -0.739449 0.525072 5.336929 0
M  V30 3 C -1.408007 -0.047696 4.287848 0
M  V30 4 O -2.509013 0.541917 4.138301 0
M  V30 5 C -0.944538 -1.154985 3.467857 0 CFG=1
M  V30 6 C -1.931211 -1.586278 2.414456 0 CFG=1
M  V30 7 C -2.201018 -0.642644 1.322277 0
M  V30 8 C -2.577562 -1.427147 0.064101 0 CFG=2
M  V30 9 C -3.252737 -0.550342 -0.929357 0
M  V30 10 N -2.700303 0.571062 -1.429443 0
M  V30 11 C -3.608759 1.074241 -2.283313 0
M  V30 12 C -3.581308 2.206128 -3.076653 0
M  V30 13 C -4.676781 2.494546 -3.878946 0
M  V30 14 C -5.796028 1.658346 -3.891094 0
M  V30 15 C -5.835706 0.513727 -3.095324 0
M  V30 16 C -4.718673 0.265257 -2.309812 0
M  V30 17 C -4.492465 -0.784114 -1.437318 0
M  V30 18 C -5.203106 -1.997150 -0.957800 0
M  V30 19 C -4.216014 -3.069169 -0.539453 0
M  V30 20 N -3.354856 -2.551541 0.481111 0
M  V30 21 C -2.409578 -3.560986 0.917627 0
M  V30 22 C -1.518997 -2.979992 2.009669 0 CFG=1
M  V30 23 C -0.082286 -3.178903 1.728339 0
M  V30 24 C 0.902160 -2.173964 2.141644 0 CFG=1
M  V30 25 O 1.712573 -1.735641 1.059006 0
M  V30 26 C 3.068561 -1.843609 0.969879 0
M  V30 27 O 3.735664 -2.371243 1.897224 0
M  V30 28 C 3.642375 -1.307454 -0.258719 0
M  V30 29 C 2.941256 -0.725483 -1.288411 0
M  V30 30 C 3.553097 -0.239182 -2.424297 0
M  V30 31 O 2.766441 0.324019 -3.395769 0
M  V30 32 C 1.378131 0.448126 -3.330265 0
M  V30 33 C 4.918479 -0.314302 -2.584662 0
M  V30 34 O 5.445842 0.200671 -3.759791 0
M  V30 35 C 5.870709 1.520779 -3.953330 0
M  V30 36 C 5.651645 -0.894822 -1.565349 0
M  V30 37 O 7.027512 -0.963984 -1.740396 0
M  V30 38 C 7.813429 -1.550874 -0.720135 0
M  V30 39 C 5.021042 -1.375463 -0.436665 0
M  V30 40 C 0.370267 -0.935361 2.810900 0 CFG=2
M  V30 41 O 1.257892 -0.430626 3.760723 0
M  V30 42 C 1.721186 0.837567 3.417788 0
M  V30 43 H -0.458781 2.170411 6.586317 0
M  V30 44 H -1.966818 2.220617 5.508476 0
M  V30 45 H -1.851115 1.117839 6.926426 0
M  V30 46 H -0.797113 -2.068049 4.121924 0
M  V30 47 H -2.905195 -1.699212 2.982979 0
M  V30 48 H -1.433450 0.051254 1.008577 0
M  V30 49 H -3.115773 -0.009874 1.522027 0
M  V30 50 H -1.605472 -1.786653 -0.363699 0
M  V30 51 H -1.771567 1.030657 -1.252167 0
M  V30 52 H -2.709307 2.856697 -3.066600 0
M  V30 53 H -4.589589 3.383316 -4.466176 0
M  V30 54 H -6.627770 1.921026 -4.531282 0
M  V30 55 H -6.682980 -0.142020 -3.088182 0
M  V30 56 H -5.949390 -2.382291 -1.681956 0
M  V30 57 H -5.770609 -1.683936 -0.045810 0
M  V30 58 H -3.668456 -3.442696 -1.433535 0
M  V30 59 H -4.786666 -3.913172 -0.125760 0
M  V30 60 H -2.841871 -4.528979 1.154603 0
M  V30 61 H -1.735514 -3.733261 0.035159 0
M  V30 62 H -1.763342 -3.619641 2.911958 0
M  V30 63 H 0.236984 -4.212184 2.065313 0
M  V30 64 H -0.010687 -3.293300 0.603690 0
M  V30 65 H 1.594871 -2.616677 2.889921 0
M  V30 66 H 1.877896 -0.658163 -1.181540 0
M  V30 67 H 1.011874 1.117637 -2.538803 0
M  V30 68 H 0.900215 -0.559987 -3.210505 0
M  V30 69 H 1.028010 0.880096 -4.306589 0
M  V30 70 H 5.825483 1.764193 -5.046223 0
M  V30 71 H 6.932309 1.588327 -3.637786 0
M  V30 72 H 5.250451 2.250229 -3.392656 0
M  V30 73 H 7.640289 -0.986367 0.235267 0
M  V30 74 H 8.872023 -1.540286 -1.003968 0
M  V30 75 H 7.495459 -2.593842 -0.530990 0
M  V30 76 H 5.693084 -1.816904 0.312039 0
M  V30 77 H 0.289590 -0.114088 2.055259 0
M  V30 78 H 0.837913 1.500730 3.341947 0
M  V30 79 H 2.189382 0.839743 2.391457 0
M  V30 80 H 2.369148 1.274053 4.179545 0
M  V30 END ATOM
M  V30 BEGIN BOND
M  V30 1 1 1 2
M  V30 2 1 2 3
M  V30 3 2 3 4
M  V30 4 1 3 5
M  V30 5 1 5 6
M  V30 6 1 6 7
M  V30 7 1 7 8
M  V30 8 1 8 9
M  V30 9 1 9 10
M  V30 10 1 10 11
M  V30 11 2 11 12
M  V30 12 1 12 13
M  V30 13 2 13 14
M  V30 14 1 14 15
M  V30 15 2 15 16
M  V30 16 1 16 17
M  V30 17 1 17 18
M  V30 18 1 18 19
M  V30 19 1 19 20
M  V30 20 1 20 21
M  V30 21 1 21 22
M  V30 22 1 22 23
M  V30 23 1 23 24
M  V30 24 1 24 25
M  V30 25 1 25 26
M  V30 26 2 26 27
M  V30 27 1 26 28
M  V30 28 2 28 29
M  V30 29 1 29 30
M  V30 30 1 30 31
M  V30 31 1 31 32
M  V30 32 2 30 33
M  V30 33 1 33 34
M  V30 34 1 34 35
M  V30 35 1 33 36
M  V30 36 1 36 37
M  V30 37 1 37 38
M  V30 38 2 36 39
M  V30 39 1 24 40
M  V30 40 1 40 41
M  V30 41 1 41 42
M  V30 42 1 40 5
M  V30 43 1 22 6
M  V30 44 1 39 28
M  V30 45 1 20 8
M  V30 46 2 17 9
M  V30 47 1 16 11
M  V30 48 1 1 43
M  V30 49 1 1 44
M  V30 50 1 1 45
M  V30 51 1 5 46 CFG=1
M  V30 52 1 6 47 CFG=1
M  V30 53 1 7 48
M  V30 54 1 7 49
M  V30 55 1 8 50 CFG=3
M  V30 56 1 10 51
M  V30 57 1 12 52
M  V30 58 1 13 53
M  V30 59 1 14 54
M  V30 60 1 15 55
M  V30 61 1 18 56
M  V30 62 1 18 57
M  V30 63 1 19 58
M  V30 64 1 19 59
M  V30 65 1 21 60
M  V30 66 1 21 61
M  V30 67 1 22 62 CFG=1
M  V30 68 1 23 63
M  V30 69 1 23 64
M  V30 70 1 24 65 CFG=1
M  V30 71 1 29 66
M  V30 72 1 32 67
M  V30 73 1 32 68
M  V30 74 1 32 69
M  V30 75 1 35 70
M  V30 76 1 35 71
M  V30 77 1 35 72
M  V30 78 1 38 73
M  V30 79 1 38 74
M  V30 80 1 38 75
M  V30 81 1 39 76
M  V30 82 1 40 77 CFG=3
M  V30 83 1 42 78
M  V30 84 1 42 79
M  V30 85 1 42 80
M  V30 END BOND
M  V30 END CTAB
M  END
>  <Dataset>  (257) 
OralDrugs

>  <Ligand_Instance>  (257) 
nan

>  <PDB_ID>  (257) 
nan

>  <Standardized_SMILES>  (257) 
COC(=O)[C@H]1[C@H]2C[C@@H]3c4[nH]c5ccccc5c4CCN3C[C@H]2C[C@@H](OC(=O)c2cc(OC)c(OC)c(OC)c2)[C@@H]1OC

>  <Name>  (257) 
Deserpidine

>  <Pocket>  (257) 
nan

>  <ATP_Site>  (257) 
nan

>  <Peripheral>  (257) 
nan

>  <Num_H_Atoms_ProtBoundConf>  (257) 
nan

>  <Num_Resolved_Atoms>  (257) 
nan

>  <Num_Not_Resolved_Atoms>  (257) 
nan

$$$$
CHEMBL72
     RDKit          3D

  0  0  0  0  0  0  0  0  0  0999 V3000
M  V30 BEGIN CTAB
M  V30 COUNTS 42 44 0 0 0
M  V30 BEGIN ATOM
M  V30 1 C -1.965852 -2.486253 4.198811 0
M  V30 2 N -1.507339 -3.607866 3.382686 0
M  V30 3 C -1.609145 -3.227347 1.961506 0
M  V30 4 C -0.563931 -2.126213 1.693411 0
M  V30 5 C -0.584944 -1.658779 0.254464 0
M  V30 6 N 0.395472 -0.621097 -0.038550 0
M  V30 7 C 0.055807 0.480826 -0.943046 0
M  V30 8 C -0.970819 0.068043 -1.763434 0
M  V30 9 C -1.400331 1.019025 -2.659258 0
M  V30 10 C -0.825353 2.272984 -2.703090 0
M  V30 11 C 0.211885 2.631529 -1.846513 0
M  V30 12 C 0.702005 1.722816 -0.911689 0
M  V30 13 C 1.810311 2.312874 -0.133236 0
M  V30 14 C 2.075297 1.732452 1.204611 0
M  V30 15 C 2.398792 0.289719 1.106725 0
M  V30 16 C 3.624207 -0.075736 1.638681 0
M  V30 17 C 4.054316 -1.401922 1.618470 0
M  V30 18 C 3.289172 -2.424509 1.070804 0
M  V30 19 C 2.069048 -2.135554 0.527474 0
M  V30 20 C 1.696881 -0.779582 0.580909 0
M  V30 21 H -1.108578 -1.930307 4.662396 0
M  V30 22 H -2.577033 -2.849744 5.050249 0
M  V30 23 H -2.532787 -1.776051 3.591786 0
M  V30 24 H -0.484409 -3.771983 3.625364 0
M  V30 25 H -2.628889 -2.899109 1.766592 0
M  V30 26 H -1.373430 -4.139653 1.378244 0
M  V30 27 H 0.347859 -2.545334 2.079514 0
M  V30 28 H -0.963022 -1.295703 2.371223 0
M  V30 29 H -1.556328 -1.114696 0.221880 0
M  V30 30 H -0.658641 -2.458901 -0.468221 0
M  V30 31 H -1.347726 -0.942024 -1.659845 0
M  V30 32 H -2.206232 0.747545 -3.330195 0
M  V30 33 H -1.216620 2.986613 -3.444799 0
M  V30 34 H 0.641725 3.635068 -1.910711 0
M  V30 35 H 1.597423 3.416586 -0.037237 0
M  V30 36 H 2.707875 2.252996 -0.801476 0
M  V30 37 H 2.928742 2.260984 1.661279 0
M  V30 38 H 1.145482 1.886762 1.828429 0
M  V30 39 H 4.257438 0.698738 2.079270 0
M  V30 40 H 5.028083 -1.672809 2.044371 0
M  V30 41 H 3.573082 -3.458533 1.031859 0
M  V30 42 H 1.335397 -2.808400 0.052007 0
M  V30 END ATOM
M  V30 BEGIN BOND
M  V30 1 1 1 2
M  V30 2 1 2 3
M  V30 3 1 3 4
M  V30 4 1 4 5
M  V30 5 1 5 6
M  V30 6 1 6 7
M  V30 7 2 7 8
M  V30 8 1 8 9
M  V30 9 2 9 10
M  V30 10 1 10 11
M  V30 11 2 11 12
M  V30 12 1 12 13
M  V30 13 1 13 14
M  V30 14 1 14 15
M  V30 15 2 15 16
M  V30 16 1 16 17
M  V30 17 2 17 18
M  V30 18 1 18 19
M  V30 19 2 19 20
M  V30 20 1 20 6
M  V30 21 1 12 7
M  V30 22 1 20 15
M  V30 23 1 1 21
M  V30 24 1 1 22
M  V30 25 1 1 23
M  V30 26 1 2 24
M  V30 27 1 3 25
M  V30 28 1 3 26
M  V30 29 1 4 27
M  V30 30 1 4 28
M  V30 31 1 5 29
M  V30 32 1 5 30
M  V30 33 1 8 31
M  V30 34 1 9 32
M  V30 35 1 10 33
M  V30 36 1 11 34
M  V30 37 1 13 35
M  V30 38 1 13 36
M  V30 39 1 14 37
M  V30 40 1 14 38
M  V30 41 1 16 39
M  V30 42 1 17 40
M  V30 43 1 18 41
M  V30 44 1 19 42
M  V30 END BOND
M  V30 END CTAB
M  END
>  <Dataset>  (258) 
OralDrugs

>  <Ligand_Instance>  (258) 
nan

>  <PDB_ID>  (258) 
nan

>  <Standardized_SMILES>  (258) 
CNCCCN1c2ccccc2CCc2ccccc21

>  <Name>  (258) 
Desipramine

>  <Pocket>  (258) 
nan

>  <ATP_Site>  (258) 
nan

>  <Peripheral>  (258) 
nan

>  <Num_H_Atoms_ProtBoundConf>  (258) 
nan

>  <Num_Resolved_Atoms>  (258) 
nan

>  <Num_Not_Resolved_Atoms>  (258) 
nan

$$$$
CHEMBL1172
     RDKit          3D

  0  0  0  0  0  0  0  0  0  0999 V3000
M  V30 BEGIN CTAB
M  V30 COUNTS 41 44 0 0 0
M  V30 BEGIN ATOM
M  V30 1 Cl 1.509365 -4.211749 -3.965941 0
M  V30 2 C 1.215022 -3.212855 -2.512998 0
M  V30 3 C 1.830594 -3.224085 -1.267630 0
M  V30 4 C 1.408813 -2.338509 -0.340185 0
M  V30 5 C 0.376628 -1.385756 -0.524602 0
M  V30 6 C -0.221010 -1.393072 -1.744229 0
M  V30 7 C 0.196126 -2.271113 -2.677475 0
M  V30 8 C -1.341368 -0.450305 -1.831173 0
M  V30 9 C -2.396598 -0.736256 -0.762180 0
M  V30 10 C -2.106272 0.151482 0.419266 0
M  V30 11 C -3.173068 0.939472 0.713167 0
M  V30 12 C -2.916124 1.812574 1.749568 0
M  V30 13 C -1.700715 1.826554 2.367132 0
M  V30 14 N -0.798812 0.999221 1.950397 0
M  V30 15 C -0.787106 0.074933 0.988649 0
M  V30 16 C 0.464008 -0.762544 0.757520 0
M  V30 17 C 1.247817 -0.602236 1.745639 0
M  V30 18 C 1.085527 0.086781 3.027367 0
M  V30 19 C 2.011589 -0.505591 4.092224 0
M  V30 20 N 3.346669 0.106525 3.897020 0
M  V30 21 C 3.388233 0.420341 2.440727 0
M  V30 22 C 2.718975 -0.808170 1.769300 0
M  V30 23 H 2.582804 -3.984214 -1.239486 0
M  V30 24 H 1.939967 -2.538945 0.571804 0
M  V30 25 H -0.410747 -2.132291 -3.591445 0
M  V30 26 H -1.880036 -0.585669 -2.792707 0
M  V30 27 H -1.044642 0.605252 -1.782044 0
M  V30 28 H -3.358826 -0.449964 -1.171622 0
M  V30 29 H -2.299185 -1.770893 -0.432392 0
M  V30 30 H -4.071940 0.782279 0.143745 0
M  V30 31 H -3.718576 2.456608 2.035139 0
M  V30 32 H -1.443073 2.478244 3.195177 0
M  V30 33 H 0.066912 -0.150563 3.455969 0
M  V30 34 H 1.180626 1.166971 2.968695 0
M  V30 35 H 2.049658 -1.563702 3.985005 0
M  V30 36 H 1.632230 -0.244030 5.082737 0
M  V30 37 H 3.369484 1.057916 4.386998 0
M  V30 38 H 2.920827 1.361069 2.180419 0
M  V30 39 H 4.432068 0.419804 2.159644 0
M  V30 40 H 3.178194 -0.858779 0.744614 0
M  V30 41 H 3.068795 -1.660784 2.363270 0
M  V30 END ATOM
M  V30 BEGIN BOND
M  V30 1 1 1 2
M  V30 2 2 2 3
M  V30 3 1 3 4
M  V30 4 2 4 5
M  V30 5 1 5 6
M  V30 6 2 6 7
M  V30 7 1 6 8
M  V30 8 1 8 9
M  V30 9 1 9 10
M  V30 10 2 10 11
M  V30 11 1 11 12
M  V30 12 2 12 13
M  V30 13 1 13 14
M  V30 14 2 14 15
M  V30 15 1 15 16
M  V30 16 2 16 17 CFG=2
M  V30 17 1 17 18
M  V30 18 1 18 19
M  V30 19 1 19 20
M  V30 20 1 20 21
M  V30 21 1 21 22
M  V30 22 1 7 2
M  V30 23 1 15 10
M  V30 24 1 22 17
M  V30 25 1 16 5
M  V30 26 1 3 23
M  V30 27 1 4 24
M  V30 28 1 7 25
M  V30 29 1 8 26
M  V30 30 1 8 27
M  V30 31 1 9 28
M  V30 32 1 9 29
M  V30 33 1 11 30
M  V30 34 1 12 31
M  V30 35 1 13 32
M  V30 36 1 18 33
M  V30 37 1 18 34
M  V30 38 1 19 35
M  V30 39 1 19 36
M  V30 40 1 20 37
M  V30 41 1 21 38
M  V30 42 1 21 39
M  V30 43 1 22 40
M  V30 44 1 22 41
M  V30 END BOND
M  V30 END CTAB
M  END
>  <Dataset>  (259) 
OralDrugs

>  <Ligand_Instance>  (259) 
nan

>  <PDB_ID>  (259) 
nan

>  <Standardized_SMILES>  (259) 
Clc1ccc2c(c1)CCc1cccnc1C2=C1CCNCC1

>  <Name>  (259) 
Desloratadine

>  <Pocket>  (259) 
nan

>  <ATP_Site>  (259) 
nan

>  <Peripheral>  (259) 
nan

>  <Num_H_Atoms_ProtBoundConf>  (259) 
nan

>  <Num_Resolved_Atoms>  (259) 
nan

>  <Num_Not_Resolved_Atoms>  (259) 
nan

$$$$
CHEMBL1118
     RDKit          3D

  0  0  0  0  0  0  0  0  0  0999 V3000
M  V30 BEGIN CTAB
M  V30 COUNTS 44 45 0 0 0
M  V30 BEGIN ATOM
M  V30 1 C -1.920429 -2.043180 0.397941 0
M  V30 2 N -0.842413 -2.071019 1.315844 0
M  V30 3 C -0.929242 -3.266256 2.134207 0
M  V30 4 C 0.474184 -1.960012 0.831656 0
M  V30 5 C 0.949879 -0.676535 0.267240 0
M  V30 6 C 0.150838 -0.263579 -0.886675 0
M  V30 7 C 0.510213 -0.743172 -2.155023 0
M  V30 8 C -0.148848 -0.417229 -3.347091 0
M  V30 9 C -1.228424 0.435459 -3.272279 0
M  V30 10 O -1.929786 0.801928 -4.411529 0
M  V30 11 C -1.644866 0.950309 -2.070407 0
M  V30 12 C -0.938796 0.576172 -0.951763 0
M  V30 13 C 1.347682 0.368693 1.233894 0
M  V30 14 O 1.752616 1.510889 0.507874 0
M  V30 15 C 2.671741 -0.093166 1.879723 0
M  V30 16 C 3.111720 1.003258 2.827457 0
M  V30 17 C 2.234411 0.859500 4.058967 0
M  V30 18 C 0.947003 0.171080 3.669993 0
M  V30 19 C 0.443082 0.729405 2.330596 0
M  V30 20 H -2.598338 -2.936358 0.586999 0
M  V30 21 H -2.632836 -1.182482 0.547173 0
M  V30 22 H -1.641760 -2.182898 -0.673726 0
M  V30 23 H -0.722357 -4.129157 1.446778 0
M  V30 24 H -0.185155 -3.298872 2.943897 0
M  V30 25 H -1.959679 -3.444279 2.503920 0
M  V30 26 H 0.559144 -2.710137 -0.019070 0
M  V30 27 H 1.200767 -2.399884 1.581376 0
M  V30 28 H 1.956362 -0.980734 -0.215118 0
M  V30 29 H 1.364052 -1.428835 -2.278417 0
M  V30 30 H 0.195432 -0.832916 -4.282197 0
M  V30 31 H -1.685313 0.521596 -5.341683 0
M  V30 32 H -2.481829 1.617540 -1.983350 0
M  V30 33 H -1.271442 0.987052 -0.009861 0
M  V30 34 H 1.219695 2.300013 0.782242 0
M  V30 35 H 3.395756 -0.137006 1.023135 0
M  V30 36 H 2.596149 -1.075778 2.338698 0
M  V30 37 H 2.882396 1.986515 2.388208 0
M  V30 38 H 4.171017 0.856291 3.057532 0
M  V30 39 H 2.836111 0.232315 4.768769 0
M  V30 40 H 2.066199 1.836408 4.513458 0
M  V30 41 H 0.192469 0.394378 4.471111 0
M  V30 42 H 1.062626 -0.909918 3.667932 0
M  V30 43 H 0.500676 1.846901 2.494387 0
M  V30 44 H -0.632823 0.526880 2.204767 0
M  V30 END ATOM
M  V30 BEGIN BOND
M  V30 1 1 1 2
M  V30 2 1 2 3
M  V30 3 1 2 4
M  V30 4 1 4 5
M  V30 5 1 5 6
M  V30 6 2 6 7
M  V30 7 1 7 8
M  V30 8 2 8 9
M  V30 9 1 9 10
M  V30 10 1 9 11
M  V30 11 2 11 12
M  V30 12 1 5 13
M  V30 13 1 13 14
M  V30 14 1 13 15
M  V30 15 1 15 16
M  V30 16 1 16 17
M  V30 17 1 17 18
M  V30 18 1 18 19
M  V30 19 1 12 6
M  V30 20 1 19 13
M  V30 21 1 1 20
M  V30 22 1 1 21
M  V30 23 1 1 22
M  V30 24 1 3 23
M  V30 25 1 3 24
M  V30 26 1 3 25
M  V30 27 1 4 26
M  V30 28 1 4 27
M  V30 29 1 5 28
M  V30 30 1 7 29
M  V30 31 1 8 30
M  V30 32 1 10 31
M  V30 33 1 11 32
M  V30 34 1 12 33
M  V30 35 1 14 34
M  V30 36 1 15 35
M  V30 37 1 15 36
M  V30 38 1 16 37
M  V30 39 1 16 38
M  V30 40 1 17 39
M  V30 41 1 17 40
M  V30 42 1 18 41
M  V30 43 1 18 42
M  V30 44 1 19 43
M  V30 45 1 19 44
M  V30 END BOND
M  V30 END CTAB
M  END
>  <Dataset>  (260) 
OralDrugs

>  <Ligand_Instance>  (260) 
nan

>  <PDB_ID>  (260) 
nan

>  <Standardized_SMILES>  (260) 
CN(C)CC(c1ccc(O)cc1)C1(O)CCCCC1

>  <Name>  (260) 
Desvenlafaxine

>  <Pocket>  (260) 
nan

>  <ATP_Site>  (260) 
nan

>  <Peripheral>  (260) 
nan

>  <Num_H_Atoms_ProtBoundConf>  (260) 
nan

>  <Num_Resolved_Atoms>  (260) 
nan

>  <Num_Not_Resolved_Atoms>  (260) 
nan

$$$$
CHEMBL4435170
     RDKit          3D

  0  0  0  0  0  0  0  0  0  0999 V3000
M  V30 BEGIN CTAB
M  V30 COUNTS 53 56 0 0 0
M  V30 BEGIN ATOM
M  V30 1 H 3.876484 -3.860893 2.014158 0 MASS=2
M  V30 2 C 4.664892 -3.153012 1.677880 0
M  V30 3 H 5.539736 -3.308245 2.350412 0 MASS=2
M  V30 4 H 5.041088 -3.377331 0.652528 0 MASS=2
M  V30 5 N 4.235851 -1.778612 1.837872 0
M  V30 6 C 2.978108 -1.486136 1.232884 0
M  V30 7 O 2.603742 -2.556645 0.720065 0
M  V30 8 C 2.427239 -0.142872 1.317443 0
M  V30 9 N 3.186094 0.800174 1.901485 0
M  V30 10 N 2.782648 2.055513 1.989489 0
M  V30 11 C 1.597633 2.469625 1.505517 0
M  V30 12 N 1.312947 3.851125 1.679974 0
M  V30 13 C 0.648369 4.053636 2.907228 0
M  V30 14 O 0.062874 4.052465 4.036706 0
M  V30 15 C 0.179769 5.338792 3.467560 0
M  V30 16 C 1.024253 6.557386 3.263404 0
M  V30 17 C -0.355276 6.387005 2.569494 0
M  V30 18 C 0.799849 1.520238 0.901792 0
M  V30 19 C 1.195679 0.180742 0.791772 0
M  V30 20 N 0.353257 -0.740343 0.167533 0
M  V30 21 C -0.336567 -1.903150 0.598915 0
M  V30 22 C -0.343049 -2.408854 1.874942 0
M  V30 23 C -1.015393 -3.536646 2.278755 0
M  V30 24 C -1.747329 -4.226562 1.335734 0
M  V30 25 C -1.753515 -3.734318 0.047329 0
M  V30 26 C -2.535143 -4.470899 -0.957361 0
M  V30 27 N -3.248272 -5.588012 -0.725083 0
M  V30 28 C -3.842720 -6.007984 -1.851904 0
M  V30 29 N -3.485835 -5.119491 -2.819153 0
M  V30 30 C -3.942343 -5.245227 -4.193707 0
M  V30 31 N -2.707346 -4.214312 -2.260867 0
M  V30 32 C -1.065915 -2.598715 -0.319992 0
M  V30 33 O -1.147431 -2.202417 -1.640779 0
M  V30 34 C -2.139268 -1.323242 -2.133891 0
M  V30 35 H 4.822784 -1.065992 2.364329 0
M  V30 36 H 1.477363 4.734067 1.123740 0
M  V30 37 H -0.320587 5.245189 4.452767 0
M  V30 38 H 1.912149 6.456275 2.617556 0
M  V30 39 H 1.066459 7.340014 4.067289 0
M  V30 40 H -1.137893 7.100020 2.919373 0
M  V30 41 H -0.294548 6.220452 1.484013 0
M  V30 42 H -0.147267 1.894775 0.524579 0
M  V30 43 H 0.284119 -0.420015 -0.806730 0
M  V30 44 H 0.233125 -1.869674 2.627481 0
M  V30 45 H -0.987781 -3.892549 3.295506 0
M  V30 46 H -2.297207 -5.116866 1.583273 0
M  V30 47 H -4.463382 -6.899735 -1.858744 0
M  V30 48 H -4.878962 -4.652630 -4.359898 0
M  V30 49 H -4.101754 -6.311215 -4.465359 0
M  V30 50 H -3.168089 -4.854574 -4.877294 0
M  V30 51 H -1.849252 -0.250460 -2.058107 0
M  V30 52 H -3.091925 -1.428131 -1.577027 0
M  V30 53 H -2.316395 -1.525718 -3.207278 0
M  V30 END ATOM
M  V30 BEGIN BOND
M  V30 1 1 1 2
M  V30 2 1 2 3
M  V30 3 1 2 4
M  V30 4 1 2 5
M  V30 5 1 5 6
M  V30 6 2 6 7
M  V30 7 1 6 8
M  V30 8 2 8 9
M  V30 9 1 9 10
M  V30 10 2 10 11
M  V30 11 1 11 12
M  V30 12 1 12 13
M  V30 13 2 13 14
M  V30 14 1 13 15
M  V30 15 1 15 16
M  V30 16 1 16 17
M  V30 17 1 11 18
M  V30 18 2 18 19
M  V30 19 1 19 20
M  V30 20 1 20 21
M  V30 21 2 21 22
M  V30 22 1 22 23
M  V30 23 2 23 24
M  V30 24 1 24 25
M  V30 25 1 25 26
M  V30 26 1 26 27
M  V30 27 2 27 28
M  V30 28 1 28 29
M  V30 29 1 29 30
M  V30 30 1 29 31
M  V30 31 2 25 32
M  V30 32 1 32 33
M  V30 33 1 33 34
M  V30 34 1 19 8
M  V30 35 1 32 21
M  V30 36 1 17 15
M  V30 37 2 31 26
M  V30 38 1 5 35
M  V30 39 1 12 36
M  V30 40 1 15 37
M  V30 41 1 16 38
M  V30 42 1 16 39
M  V30 43 1 17 40
M  V30 44 1 17 41
M  V30 45 1 18 42
M  V30 46 1 20 43
M  V30 47 1 22 44
M  V30 48 1 23 45
M  V30 49 1 24 46
M  V30 50 1 28 47
M  V30 51 1 30 48
M  V30 52 1 30 49
M  V30 53 1 30 50
M  V30 54 1 34 51
M  V30 55 1 34 52
M  V30 56 1 34 53
M  V30 END BOND
M  V30 END CTAB
M  END
>  <Dataset>  (261) 
OralDrugs

>  <Ligand_Instance>  (261) 
nan

>  <PDB_ID>  (261) 
nan

>  <Standardized_SMILES>  (261) 
[2H]C([2H])([2H])NC(=O)c1nnc(NC(=O)C2CC2)cc1Nc1cccc(-c2ncn(C)n2)c1OC

>  <Name>  (261) 
Deucravacitinib

>  <Pocket>  (261) 
nan

>  <ATP_Site>  (261) 
nan

>  <Peripheral>  (261) 
nan

>  <Num_H_Atoms_ProtBoundConf>  (261) 
nan

>  <Num_Resolved_Atoms>  (261) 
nan

>  <Num_Not_Resolved_Atoms>  (261) 
nan

$$$$
CHEMBL3137326
     RDKit          3D

  0  0  0  0  0  0  0  0  0  0999 V3000
M  V30 BEGIN CTAB
M  V30 COUNTS 50 52 0 0 0
M  V30 BEGIN ATOM
M  V30 1 H 6.920161 -1.118250 -2.773178 0 MASS=2
M  V30 2 C 6.063205 -1.285007 -2.121395 0
M  V30 3 H 6.441775 -1.519863 -1.105505 0 MASS=2
M  V30 4 H 5.459927 -2.187059 -2.434327 0 MASS=2
M  V30 5 O 5.188271 -0.162134 -2.076059 0
M  V30 6 C 3.923117 -0.240306 -1.511352 0
M  V30 7 C 3.453361 -1.422731 -0.962997 0
M  V30 8 C 2.179438 -1.375398 -0.431431 0
M  V30 9 C 1.401624 -0.234722 -0.433286 0
M  V30 10 C 1.919339 0.914300 -0.992323 0
M  V30 11 C 3.202248 0.936156 -1.548104 0
M  V30 12 O 3.704175 2.105838 -2.106410 0
M  V30 13 C 2.840267 3.239330 -2.068626 0
M  V30 14 H 3.363855 4.162820 -2.423651 0 MASS=2
M  V30 15 H 2.613540 3.443365 -0.981249 0 MASS=2
M  V30 16 H 1.871843 3.069050 -2.550463 0 MASS=2
M  V30 17 C 0.013109 -0.254833 0.166520 0
M  V30 18 C -1.015238 -0.710356 -0.792621 0
M  V30 19 C -2.220560 -1.155190 -0.040866 0
M  V30 20 O -2.990426 -1.922442 -0.587243 0
M  V30 21 C -2.229776 -0.515155 1.332051 0
M  V30 22 C -3.512817 -0.862301 2.019506 0
M  V30 23 C -3.754734 -0.299438 3.368716 0
M  V30 24 C -5.156015 -0.828847 3.784132 0
M  V30 25 C -2.799767 -0.600911 4.456632 0
M  V30 26 C -1.062750 -1.075912 2.122016 0
M  V30 27 N 0.121615 -1.170148 1.270899 0
M  V30 28 C 0.348136 -2.530264 0.821538 0
M  V30 29 C 1.675977 -2.645272 0.157253 0
M  V30 30 H 4.059865 -2.329723 -0.956462 0
M  V30 31 H 1.323194 1.813679 -1.001211 0
M  V30 32 H -0.244920 0.747494 0.542614 0
M  V30 33 H -0.711248 -1.538533 -1.451583 0
M  V30 34 H -1.371435 0.092254 -1.487975 0
M  V30 35 H -2.139053 0.574634 1.238083 0
M  V30 36 H -3.515183 -1.995538 2.154708 0
M  V30 37 H -4.329189 -0.588937 1.300249 0
M  V30 38 H -3.846457 0.829908 3.309397 0
M  V30 39 H -5.792207 -0.986024 2.900923 0
M  V30 40 H -5.606161 -0.171747 4.550486 0
M  V30 41 H -5.029572 -1.834434 4.272170 0
M  V30 42 H -2.296863 -1.562639 4.443124 0
M  V30 43 H -2.135501 0.279919 4.688403 0
M  V30 44 H -3.431752 -0.646234 5.414953 0
M  V30 45 H -1.240130 -2.113399 2.462862 0
M  V30 46 H -0.755178 -0.470806 2.980984 0
M  V30 47 H 0.284441 -3.149096 1.762921 0
M  V30 48 H -0.433187 -2.912448 0.145231 0
M  V30 49 H 1.725277 -3.469066 -0.594226 0
M  V30 50 H 2.423879 -2.965020 0.935436 0
M  V30 END ATOM
M  V30 BEGIN BOND
M  V30 1 1 1 2
M  V30 2 1 2 3
M  V30 3 1 2 4
M  V30 4 1 2 5
M  V30 5 1 5 6
M  V30 6 2 6 7
M  V30 7 1 7 8
M  V30 8 2 8 9
M  V30 9 1 9 10
M  V30 10 2 10 11
M  V30 11 1 11 12
M  V30 12 1 12 13
M  V30 13 1 13 14
M  V30 14 1 13 15
M  V30 15 1 13 16
M  V30 16 1 9 17
M  V30 17 1 17 18
M  V30 18 1 18 19
M  V30 19 2 19 20
M  V30 20 1 19 21
M  V30 21 1 21 22
M  V30 22 1 22 23
M  V30 23 1 23 24
M  V30 24 1 23 25
M  V30 25 1 21 26
M  V30 26 1 26 27
M  V30 27 1 27 28
M  V30 28 1 28 29
M  V30 29 1 11 6
M  V30 30 1 27 17
M  V30 31 1 29 8
M  V30 32 1 7 30
M  V30 33 1 10 31
M  V30 34 1 17 32
M  V30 35 1 18 33
M  V30 36 1 18 34
M  V30 37 1 21 35
M  V30 38 1 22 36
M  V30 39 1 22 37
M  V30 40 1 23 38
M  V30 41 1 24 39
M  V30 42 1 24 40
M  V30 43 1 24 41
M  V30 44 1 25 42
M  V30 45 1 25 43
M  V30 46 1 25 44
M  V30 47 1 26 45
M  V30 48 1 26 46
M  V30 49 1 28 47
M  V30 50 1 28 48
M  V30 51 1 29 49
M  V30 52 1 29 50
M  V30 END BOND
M  V30 END CTAB
M  END
>  <Dataset>  (262) 
OralDrugs

>  <Ligand_Instance>  (262) 
nan

>  <PDB_ID>  (262) 
nan

>  <Standardized_SMILES>  (262) 
[2H]C([2H])([2H])Oc1cc2c(cc1OC([2H])([2H])[2H])C1CC(=O)C(CC(C)C)CN1CC2

>  <Name>  (262) 
Deutetrabenazine

>  <Pocket>  (262) 
nan

>  <ATP_Site>  (262) 
nan

>  <Peripheral>  (262) 
nan

>  <Num_H_Atoms_ProtBoundConf>  (262) 
nan

>  <Num_Resolved_Atoms>  (262) 
nan

>  <Num_Not_Resolved_Atoms>  (262) 
nan

$$$$
CHEMBL384467
     RDKit          3D

  0  0  0  0  0  0  0  0  0  0999 V3000
M  V30 BEGIN CTAB
M  V30 COUNTS 57 60 0 0 0
M  V30 BEGIN ATOM
M  V30 1 C 0.558411 -1.050031 -3.805857 0
M  V30 2 C 0.681617 -2.087146 -2.698030 0 CFG=2
M  V30 3 C -0.618434 -2.086006 -1.874340 0
M  V30 4 C -0.471448 -0.725045 -1.305907 0 CFG=1
M  V30 5 C -1.383568 -0.266467 -0.252036 0 CFG=2
M  V30 6 C -2.805437 -0.476447 -0.619823 0
M  V30 7 C -3.629971 0.210128 0.477999 0
M  V30 8 C -3.442417 1.669457 0.272933 0
M  V30 9 C -4.402614 2.467912 -0.165624 0
M  V30 10 C -4.023337 3.868900 -0.301680 0
M  V30 11 O -4.882571 4.675946 -0.710741 0
M  V30 12 C -2.684501 4.345395 0.023290 0
M  V30 13 C -1.847608 3.437646 0.443876 0
M  V30 14 C -2.046563 1.979572 0.646040 0 CFG=1
M  V30 15 C -1.924267 1.753445 2.134135 0
M  V30 16 C -1.047773 1.232889 -0.163783 0 CFG=2
M  V30 17 F -1.147981 1.673606 -1.473853 0
M  V30 18 C 0.363235 1.437180 0.249921 0 CFG=1
M  V30 19 O 0.609819 1.431558 1.606358 0
M  V30 20 C 1.352348 0.566719 -0.439034 0
M  V30 21 C 0.902856 -0.840831 -0.633021 0 CFG=1
M  V30 22 C 0.857215 -1.562728 0.679351 0
M  V30 23 C 1.661893 -1.625457 -1.633792 0 CFG=2
M  V30 24 O 2.539645 -0.747719 -2.298174 0
M  V30 25 C 2.479627 -2.707159 -1.088138 0
M  V30 26 O 3.655601 -2.465133 -1.406038 0
M  V30 27 C 3.167939 -3.849210 -0.486831 0
M  V30 28 O 4.550260 -3.834400 -0.692499 0
M  V30 29 H -0.509356 -0.836245 -4.055121 0
M  V30 30 H 1.124270 -0.122719 -3.556194 0
M  V30 31 H 1.003407 -1.414903 -4.764823 0
M  V30 32 H 0.902749 -3.038044 -3.157688 0
M  V30 33 H -0.510395 -2.876409 -1.133094 0
M  V30 34 H -1.478748 -2.221436 -2.540847 0
M  V30 35 H -0.338539 0.003901 -2.122575 0
M  V30 36 H -1.218668 -0.690291 0.742250 0
M  V30 37 H -2.994094 -1.575110 -0.554571 0
M  V30 38 H -3.102764 -0.091147 -1.602263 0
M  V30 39 H -4.676096 -0.076905 0.269992 0
M  V30 40 H -3.329317 -0.141330 1.463849 0
M  V30 41 H -5.376546 2.062547 -0.391363 0
M  V30 42 H -2.379595 5.378078 -0.069418 0
M  V30 43 H -0.837167 3.720896 0.702626 0
M  V30 44 H -1.214757 2.495460 2.600617 0
M  V30 45 H -1.733327 0.716362 2.424874 0
M  V30 46 H -2.903992 2.028638 2.580757 0
M  V30 47 H 0.618577 2.490903 -0.075375 0
M  V30 48 H 1.160078 2.201191 1.930585 0
M  V30 49 H 1.603046 0.988252 -1.446774 0
M  V30 50 H 2.314436 0.607530 0.133941 0
M  V30 51 H 0.637352 -0.905489 1.558300 0
M  V30 52 H 0.147293 -2.396137 0.737478 0
M  V30 53 H 1.927246 -1.869258 0.876708 0
M  V30 54 H 3.322805 -0.590361 -1.688747 0
M  V30 55 H 2.995178 -3.996167 0.578717 0
M  V30 56 H 2.808348 -4.797619 -0.987384 0
M  V30 57 H 5.056318 -4.149795 0.094402 0
M  V30 END ATOM
M  V30 BEGIN BOND
M  V30 1 1 1 2
M  V30 2 1 2 3
M  V30 3 1 3 4
M  V30 4 1 4 5
M  V30 5 1 5 6
M  V30 6 1 6 7
M  V30 7 1 7 8
M  V30 8 2 8 9
M  V30 9 1 9 10
M  V30 10 2 10 11
M  V30 11 1 10 12
M  V30 12 2 12 13
M  V30 13 1 13 14
M  V30 14 1 14 15 CFG=1
M  V30 15 1 14 16
M  V30 16 1 16 17 CFG=3
M  V30 17 1 16 18
M  V30 18 1 18 19
M  V30 19 1 18 20
M  V30 20 1 20 21
M  V30 21 1 21 22 CFG=1
M  V30 22 1 21 23
M  V30 23 1 23 24 CFG=3
M  V30 24 1 23 25
M  V30 25 2 25 26
M  V30 26 1 25 27
M  V30 27 1 27 28
M  V30 28 1 23 2
M  V30 29 1 21 4
M  V30 30 1 16 5
M  V30 31 1 14 8
M  V30 32 1 1 29
M  V30 33 1 1 30
M  V30 34 1 1 31
M  V30 35 1 2 32 CFG=3
M  V30 36 1 3 33
M  V30 37 1 3 34
M  V30 38 1 4 35 CFG=3
M  V30 39 1 5 36 CFG=1
M  V30 40 1 6 37
M  V30 41 1 6 38
M  V30 42 1 7 39
M  V30 43 1 7 40
M  V30 44 1 9 41
M  V30 45 1 12 42
M  V30 46 1 13 43
M  V30 47 1 15 44
M  V30 48 1 15 45
M  V30 49 1 15 46
M  V30 50 1 18 47 CFG=3
M  V30 51 1 19 48
M  V30 52 1 20 49
M  V30 53 1 20 50
M  V30 54 1 22 51
M  V30 55 1 22 52
M  V30 56 1 22 53
M  V30 57 1 24 54
M  V30 58 1 27 55
M  V30 59 1 27 56
M  V30 60 1 28 57
M  V30 END BOND
M  V30 END CTAB
M  END
>  <Dataset>  (263) 
OralDrugs

>  <Ligand_Instance>  (263) 
nan

>  <PDB_ID>  (263) 
nan

>  <Standardized_SMILES>  (263) 
C[C@@H]1C[C@H]2[C@@H]3CCC4=CC(=O)C=C[C@]4(C)[C@@]3(F)[C@@H](O)C[C@]2(C)[C@@]1(O)C(=O)CO

>  <Name>  (263) 
Dexamethasone

>  <Pocket>  (263) 
nan

>  <ATP_Site>  (263) 
nan

>  <Peripheral>  (263) 
nan

>  <Num_H_Atoms_ProtBoundConf>  (263) 
nan

>  <Num_Resolved_Atoms>  (263) 
nan

>  <Num_Not_Resolved_Atoms>  (263) 
nan

$$$$
CHEMBL1201287
     RDKit          3D

  0  0  0  0  0  0  0  0  0  0999 V3000
M  V30 BEGIN CTAB
M  V30 COUNTS 38 39 0 0 0
M  V30 BEGIN ATOM
M  V30 1 C -2.301611 -3.115880 1.125895 0
M  V30 2 N -0.947672 -3.494531 0.891089 0
M  V30 3 C -0.908810 -4.670559 0.048397 0
M  V30 4 C -0.091550 -2.443569 0.399032 0
M  V30 5 C 0.165749 -1.365906 1.398341 0
M  V30 6 C 1.062215 -0.276083 0.868365 0 CFG=1
M  V30 7 C 0.552605 0.421953 -0.306627 0
M  V30 8 C -0.793570 0.626909 -0.376058 0
M  V30 9 C -1.315964 1.288260 -1.481726 0
M  V30 10 C -0.491351 1.740989 -2.511159 0
M  V30 11 Br -1.206094 2.653898 -4.039670 0
M  V30 12 C 0.888445 1.534030 -2.445494 0
M  V30 13 C 1.369450 0.876485 -1.337441 0
M  V30 14 C 1.410562 0.628415 1.982916 0
M  V30 15 C 2.692126 1.126000 2.082805 0
M  V30 16 C 2.992842 1.976930 3.141536 0
M  V30 17 C 1.973143 2.277430 4.044628 0
M  V30 18 C 0.705489 1.747928 3.893535 0
M  V30 19 N 0.407974 0.913888 2.856776 0
M  V30 20 H -2.402936 -2.788914 2.178981 0
M  V30 21 H -2.919971 -4.044331 1.058260 0
M  V30 22 H -2.720334 -2.404950 0.392033 0
M  V30 23 H -0.329141 -5.439688 0.638488 0
M  V30 24 H -1.932036 -5.075409 -0.048956 0
M  V30 25 H -0.427225 -4.490572 -0.932303 0
M  V30 26 H -0.495613 -2.052078 -0.566467 0
M  V30 27 H 0.880499 -2.918128 0.150323 0
M  V30 28 H 0.729020 -1.822643 2.254393 0
M  V30 29 H -0.742214 -0.916735 1.835600 0
M  V30 30 H 2.004870 -0.803902 0.541138 0
M  V30 31 H -1.516395 0.313488 0.370532 0
M  V30 32 H -2.379057 1.476052 -1.587663 0
M  V30 33 H 1.577953 1.866658 -3.220927 0
M  V30 34 H 2.446175 0.695800 -1.251945 0
M  V30 35 H 3.443395 0.843815 1.331924 0
M  V30 36 H 3.990883 2.375490 3.234432 0
M  V30 37 H 2.208437 2.939546 4.869033 0
M  V30 38 H -0.105569 1.978782 4.600161 0
M  V30 END ATOM
M  V30 BEGIN BOND
M  V30 1 1 1 2
M  V30 2 1 2 3
M  V30 3 1 2 4
M  V30 4 1 4 5
M  V30 5 1 5 6
M  V30 6 1 6 7
M  V30 7 2 7 8
M  V30 8 1 8 9
M  V30 9 2 9 10
M  V30 10 1 10 11
M  V30 11 1 10 12
M  V30 12 2 12 13
M  V30 13 1 6 14
M  V30 14 2 14 15
M  V30 15 1 15 16
M  V30 16 2 16 17
M  V30 17 1 17 18
M  V30 18 2 18 19
M  V30 19 1 13 7
M  V30 20 1 19 14
M  V30 21 1 1 20
M  V30 22 1 1 21
M  V30 23 1 1 22
M  V30 24 1 3 23
M  V30 25 1 3 24
M  V30 26 1 3 25
M  V30 27 1 4 26
M  V30 28 1 4 27
M  V30 29 1 5 28
M  V30 30 1 5 29
M  V30 31 1 6 30 CFG=3
M  V30 32 1 8 31
M  V30 33 1 9 32
M  V30 34 1 12 33
M  V30 35 1 13 34
M  V30 36 1 15 35
M  V30 37 1 16 36
M  V30 38 1 17 37
M  V30 39 1 18 38
M  V30 END BOND
M  V30 END CTAB
M  END
>  <Dataset>  (264) 
OralDrugs

>  <Ligand_Instance>  (264) 
nan

>  <PDB_ID>  (264) 
nan

>  <Standardized_SMILES>  (264) 
CN(C)CC[C@@H](c1ccc(Br)cc1)c1ccccn1

>  <Name>  (264) 
Dexbrompheniramine

>  <Pocket>  (264) 
nan

>  <ATP_Site>  (264) 
nan

>  <Peripheral>  (264) 
nan

>  <Num_H_Atoms_ProtBoundConf>  (264) 
nan

>  <Num_Resolved_Atoms>  (264) 
nan

>  <Num_Not_Resolved_Atoms>  (264) 
nan

$$$$
CHEMBL1201353
     RDKit          3D

  0  0  0  0  0  0  0  0  0  0999 V3000
M  V30 BEGIN CTAB
M  V30 COUNTS 38 39 0 0 0
M  V30 BEGIN ATOM
M  V30 1 C -2.288812 -3.133457 1.106382 0
M  V30 2 N -0.924665 -3.506311 0.892090 0
M  V30 3 C -0.893508 -4.680104 0.040440 0
M  V30 4 C -0.071639 -2.459551 0.393296 0
M  V30 5 C 0.168346 -1.363613 1.374209 0
M  V30 6 C 1.056291 -0.273733 0.860806 0 CFG=1
M  V30 7 C 0.578492 0.426742 -0.327167 0
M  V30 8 C -0.774180 0.634472 -0.416985 0
M  V30 9 C -1.319410 1.297930 -1.521573 0
M  V30 10 C -0.426304 1.718998 -2.491743 0
M  V30 11 Cl -1.132524 2.545658 -3.862533 0
M  V30 12 C 0.938656 1.521246 -2.423377 0
M  V30 13 C 1.450449 0.865908 -1.326296 0
M  V30 14 C 1.370643 0.651240 1.987643 0
M  V30 15 C 2.663806 1.153137 2.109124 0
M  V30 16 C 2.923404 2.017702 3.172852 0
M  V30 17 C 1.868846 2.299660 4.014573 0
M  V30 18 C 0.590752 1.797240 3.885551 0
M  V30 19 N 0.366328 0.964642 2.850307 0
M  V30 20 H -2.477964 -2.745459 2.148666 0
M  V30 21 H -2.886955 -4.087959 1.083258 0
M  V30 22 H -2.725769 -2.474916 0.326404 0
M  V30 23 H -0.294009 -5.440242 0.619404 0
M  V30 24 H -1.892232 -5.108480 -0.055751 0
M  V30 25 H -0.396479 -4.502340 -0.935112 0
M  V30 26 H -0.491943 -2.103233 -0.577734 0
M  V30 27 H 0.891935 -2.939074 0.125289 0
M  V30 28 H 0.739316 -1.833198 2.229012 0
M  V30 29 H -0.742902 -0.941722 1.815978 0
M  V30 30 H 2.025969 -0.767451 0.559899 0
M  V30 31 H -1.457285 0.297329 0.350686 0
M  V30 32 H -2.383045 1.466691 -1.600942 0
M  V30 33 H 1.614941 1.857467 -3.191477 0
M  V30 34 H 2.530534 0.687821 -1.232607 0
M  V30 35 H 3.423307 0.875869 1.401119 0
M  V30 36 H 3.910009 2.425201 3.298281 0
M  V30 37 H 2.137714 2.976030 4.818485 0
M  V30 38 H -0.195395 2.058726 4.581723 0
M  V30 END ATOM
M  V30 BEGIN BOND
M  V30 1 1 1 2
M  V30 2 1 2 3
M  V30 3 1 2 4
M  V30 4 1 4 5
M  V30 5 1 5 6
M  V30 6 1 6 7
M  V30 7 2 7 8
M  V30 8 1 8 9
M  V30 9 2 9 10
M  V30 10 1 10 11
M  V30 11 1 10 12
M  V30 12 2 12 13
M  V30 13 1 6 14
M  V30 14 2 14 15
M  V30 15 1 15 16
M  V30 16 2 16 17
M  V30 17 1 17 18
M  V30 18 2 18 19
M  V30 19 1 13 7
M  V30 20 1 19 14
M  V30 21 1 1 20
M  V30 22 1 1 21
M  V30 23 1 1 22
M  V30 24 1 3 23
M  V30 25 1 3 24
M  V30 26 1 3 25
M  V30 27 1 4 26
M  V30 28 1 4 27
M  V30 29 1 5 28
M  V30 30 1 5 29
M  V30 31 1 6 30 CFG=3
M  V30 32 1 8 31
M  V30 33 1 9 32
M  V30 34 1 12 33
M  V30 35 1 13 34
M  V30 36 1 15 35
M  V30 37 1 16 36
M  V30 38 1 17 37
M  V30 39 1 18 38
M  V30 END BOND
M  V30 END CTAB
M  END
>  <Dataset>  (265) 
OralDrugs

>  <Ligand_Instance>  (265) 
nan

>  <PDB_ID>  (265) 
nan

>  <Standardized_SMILES>  (265) 
CN(C)CC[C@@H](c1ccc(Cl)cc1)c1ccccn1

>  <Name>  (265) 
Dexchlorpheniramine

>  <Pocket>  (265) 
nan

>  <ATP_Site>  (265) 
nan

>  <Peripheral>  (265) 
nan

>  <Num_H_Atoms_ProtBoundConf>  (265) 
nan

>  <Num_Resolved_Atoms>  (265) 
nan

>  <Num_Not_Resolved_Atoms>  (265) 
nan

$$$$
CHEMBL175
     RDKit          3D

  0  0  0  0  0  0  0  0  0  0999 V3000
M  V30 BEGIN CTAB
M  V30 COUNTS 33 33 0 0 0
M  V30 BEGIN ATOM
M  V30 1 C 1.040121 -2.435334 3.151937 0
M  V30 2 C -0.429631 -2.708545 2.905693 0
M  V30 3 C -1.042665 -3.108553 4.253517 0
M  V30 4 C -1.157109 -1.472946 2.474794 0
M  V30 5 C -0.705456 -0.831530 1.254795 0
M  V30 6 C -1.321224 -1.272749 0.087348 0
M  V30 7 C -0.950022 -0.711733 -1.135949 0
M  V30 8 C 0.014673 0.271697 -1.215457 0
M  V30 9 C 0.402985 0.863403 -2.526524 0 CFG=2
M  V30 10 C 1.867006 0.619927 -2.824722 0
M  V30 11 C 0.118515 2.311749 -2.544598 0
M  V30 12 O 1.036422 3.153979 -2.725183 0
M  V30 13 O -0.424234 3.576563 -2.514175 0
M  V30 14 C 0.643227 0.727740 -0.060804 0
M  V30 15 C 0.271964 0.166406 1.164195 0
M  V30 16 H 1.248264 -2.031373 4.163401 0
M  V30 17 H 1.629949 -3.395569 3.077568 0
M  V30 18 H 1.423643 -1.800242 2.325474 0
M  V30 19 H -0.494055 -3.572131 2.253698 0
M  V30 20 H -1.781725 -3.902775 4.154126 0
M  V30 21 H -0.260861 -3.457012 4.967274 0
M  V30 22 H -1.542949 -2.257857 4.744286 0
M  V30 23 H -0.993544 -0.728402 3.309590 0
M  V30 24 H -2.254566 -1.627601 2.463329 0
M  V30 25 H -2.085308 -2.039799 0.072804 0
M  V30 26 H -1.430248 -1.055898 -2.045973 0
M  V30 27 H -0.230161 0.342948 -3.289183 0
M  V30 28 H 2.156937 1.311704 -3.650892 0
M  V30 29 H 1.983769 -0.442504 -3.121364 0
M  V30 30 H 2.442759 0.841978 -1.891920 0
M  V30 31 H -1.370518 3.702504 -2.875513 0
M  V30 32 H 1.405461 1.494749 -0.058157 0
M  V30 33 H 0.729559 0.485136 2.091692 0
M  V30 END ATOM
M  V30 BEGIN BOND
M  V30 1 1 1 2
M  V30 2 1 2 3
M  V30 3 1 2 4
M  V30 4 1 4 5
M  V30 5 2 5 6
M  V30 6 1 6 7
M  V30 7 2 7 8
M  V30 8 1 8 9
M  V30 9 1 9 10
M  V30 10 1 9 11
M  V30 11 2 11 12
M  V30 12 1 11 13
M  V30 13 1 8 14
M  V30 14 2 14 15
M  V30 15 1 15 5
M  V30 16 1 1 16
M  V30 17 1 1 17
M  V30 18 1 1 18
M  V30 19 1 2 19
M  V30 20 1 3 20
M  V30 21 1 3 21
M  V30 22 1 3 22
M  V30 23 1 4 23
M  V30 24 1 4 24
M  V30 25 1 6 25
M  V30 26 1 7 26
M  V30 27 1 9 27 CFG=3
M  V30 28 1 10 28
M  V30 29 1 10 29
M  V30 30 1 10 30
M  V30 31 1 13 31
M  V30 32 1 14 32
M  V30 33 1 15 33
M  V30 END BOND
M  V30 END CTAB
M  END
>  <Dataset>  (266) 
OralDrugs

>  <Ligand_Instance>  (266) 
nan

>  <PDB_ID>  (266) 
nan

>  <Standardized_SMILES>  (266) 
CC(C)Cc1ccc([C@H](C)C(=O)O)cc1

>  <Name>  (266) 
Dexibuprofen

>  <Pocket>  (266) 
nan

>  <ATP_Site>  (266) 
nan

>  <Peripheral>  (266) 
nan

>  <Num_H_Atoms_ProtBoundConf>  (266) 
nan

>  <Num_Resolved_Atoms>  (266) 
nan

>  <Num_Not_Resolved_Atoms>  (266) 
nan

$$$$
CHEMBL75435
     RDKit          3D

  0  0  0  0  0  0  0  0  0  0999 V3000
M  V30 BEGIN CTAB
M  V30 COUNTS 33 34 0 0 0
M  V30 BEGIN ATOM
M  V30 1 C -1.589515 -2.699167 2.113476 0
M  V30 2 C -0.436669 -3.461037 1.506269 0 CFG=2
M  V30 3 C 0.792867 -3.315180 2.371056 0
M  V30 4 O 1.389320 -4.327767 2.823261 0
M  V30 5 O 1.323061 -2.076636 2.709070 0
M  V30 6 C -0.081425 -2.810447 0.196605 0
M  V30 7 C -0.007683 -3.548645 -0.956916 0
M  V30 8 C 0.329943 -2.859032 -2.122466 0
M  V30 9 C 0.585718 -1.483294 -2.142893 0
M  V30 10 C 0.507904 -0.753652 -0.977569 0
M  V30 11 C 0.783875 0.666853 -1.039624 0
M  V30 12 O 1.543695 1.079151 -1.964709 0
M  V30 13 C 0.301714 1.733169 -0.166215 0
M  V30 14 C 1.052219 2.878847 -0.025867 0
M  V30 15 C 0.607015 3.915487 0.803417 0
M  V30 16 C -0.605947 3.775360 1.486289 0
M  V30 17 C -1.333013 2.595823 1.313103 0
M  V30 18 C -0.896788 1.568213 0.494427 0
M  V30 19 C 0.172973 -1.461867 0.154945 0
M  V30 20 H -2.326775 -2.376696 1.345617 0
M  V30 21 H -1.193477 -1.766267 2.608376 0
M  V30 22 H -2.093053 -3.334698 2.870403 0
M  V30 23 H -0.650746 -4.518729 1.361297 0
M  V30 24 H 2.318833 -1.907888 2.833021 0
M  V30 25 H -0.199898 -4.599153 -0.956070 0
M  V30 26 H 0.375864 -3.483635 -3.008899 0
M  V30 27 H 0.836392 -1.084215 -3.117758 0
M  V30 28 H 1.994845 3.044225 -0.527756 0
M  V30 29 H 1.159221 4.852603 0.957292 0
M  V30 30 H -1.010946 4.515945 2.132979 0
M  V30 31 H -2.284267 2.499110 1.855668 0
M  V30 32 H -1.529716 0.683509 0.417323 0
M  V30 33 H 0.105439 -0.922360 1.087954 0
M  V30 END ATOM
M  V30 BEGIN BOND
M  V30 1 1 1 2
M  V30 2 1 2 3
M  V30 3 2 3 4
M  V30 4 1 3 5
M  V30 5 1 2 6
M  V30 6 2 6 7
M  V30 7 1 7 8
M  V30 8 2 8 9
M  V30 9 1 9 10
M  V30 10 1 10 11
M  V30 11 2 11 12
M  V30 12 1 11 13
M  V30 13 2 13 14
M  V30 14 1 14 15
M  V30 15 2 15 16
M  V30 16 1 16 17
M  V30 17 2 17 18
M  V30 18 2 10 19
M  V30 19 1 19 6
M  V30 20 1 18 13
M  V30 21 1 1 20
M  V30 22 1 1 21
M  V30 23 1 1 22
M  V30 24 1 2 23 CFG=3
M  V30 25 1 5 24
M  V30 26 1 7 25
M  V30 27 1 8 26
M  V30 28 1 9 27
M  V30 29 1 14 28
M  V30 30 1 15 29
M  V30 31 1 16 30
M  V30 32 1 17 31
M  V30 33 1 18 32
M  V30 34 1 19 33
M  V30 END BOND
M  V30 END CTAB
M  END
>  <Dataset>  (267) 
OralDrugs

>  <Ligand_Instance>  (267) 
nan

>  <PDB_ID>  (267) 
nan

>  <Standardized_SMILES>  (267) 
C[C@H](C(=O)O)c1cccc(C(=O)c2ccccc2)c1

>  <Name>  (267) 
Dexketoprofen

>  <Pocket>  (267) 
nan

>  <ATP_Site>  (267) 
nan

>  <Peripheral>  (267) 
nan

>  <Num_H_Atoms_ProtBoundConf>  (267) 
nan

>  <Num_Resolved_Atoms>  (267) 
nan

>  <Num_Not_Resolved_Atoms>  (267) 
nan

$$$$
CHEMBL1201863
     RDKit          3D

  0  0  0  0  0  0  0  0  0  0999 V3000
M  V30 BEGIN CTAB
M  V30 COUNTS 39 41 0 0 0
M  V30 BEGIN ATOM
M  V30 1 C -0.002678 -2.034810 0.302269 0
M  V30 2 C -0.765832 -2.203687 -0.960457 0
M  V30 3 C -2.068552 -1.733552 -1.074063 0
M  V30 4 O -2.485283 -1.121150 0.038282 0
M  V30 5 C -3.575289 -0.510078 0.525678 0
M  V30 6 C -4.764430 -1.421215 0.660148 0
M  V30 7 F -5.208207 -1.993779 -0.480188 0
M  V30 8 F -4.488830 -2.447273 1.571943 0
M  V30 9 F -5.824983 -0.689006 1.203879 0
M  V30 10 C -2.620839 -2.005580 -2.301765 0
M  V30 11 C -2.016057 -2.663134 -3.345507 0
M  V30 12 N -0.760953 -3.073948 -3.131228 0
M  V30 13 C -0.085607 -2.881272 -1.983591 0
M  V30 14 C 1.291965 -3.369827 -1.933938 0
M  V30 15 S 2.476897 -2.089217 -2.260903 0 CHG=1 VAL=3
M  V30 16 O 2.145287 -1.509165 -3.814448 0 CHG=-1 VAL=1
M  V30 17 C 2.371255 -0.747606 -1.152079 0
M  V30 18 N 2.959504 -0.527172 0.038424 0
M  V30 19 C 2.565539 0.678125 0.534078 0
M  V30 20 C 2.829032 1.410478 1.675121 0
M  V30 21 C 2.228431 2.647861 1.858353 0
M  V30 22 C 1.355101 3.208685 0.938614 0
M  V30 23 C 1.076362 2.480432 -0.223698 0
M  V30 24 C 1.694213 1.256444 -0.365181 0
M  V30 25 N 1.605032 0.363342 -1.367109 0
M  V30 26 H 0.883922 -2.638047 0.405328 0
M  V30 27 H 0.054691 -0.972602 0.527485 0
M  V30 28 H -0.708195 -2.438277 1.101338 0
M  V30 29 H -3.896211 0.422555 -0.038105 0
M  V30 30 H -3.331915 -0.159857 1.588115 0
M  V30 31 H -3.623642 -1.649820 -2.459775 0
M  V30 32 H -2.562152 -2.813998 -4.261558 0
M  V30 33 H 1.537467 -3.930980 -1.010904 0
M  V30 34 H 1.433668 -4.114487 -2.751928 0
M  V30 35 H 3.511269 0.985426 2.406673 0
M  V30 36 H 2.423620 3.238665 2.749145 0
M  V30 37 H 0.883504 4.170311 1.075223 0
M  V30 38 H 0.404562 2.870079 -0.972860 0
M  V30 39 H 1.006222 0.497472 -2.235010 0
M  V30 END ATOM
M  V30 BEGIN BOND
M  V30 1 1 1 2
M  V30 2 2 2 3
M  V30 3 1 3 4
M  V30 4 1 4 5
M  V30 5 1 5 6
M  V30 6 1 6 7
M  V30 7 1 6 8
M  V30 8 1 6 9
M  V30 9 1 3 10
M  V30 10 2 10 11
M  V30 11 1 11 12
M  V30 12 2 12 13
M  V30 13 1 13 14
M  V30 14 1 14 15
M  V30 15 1 15 16 CFG=3
M  V30 16 1 15 17
M  V30 17 2 17 18
M  V30 18 1 18 19
M  V30 19 2 19 20
M  V30 20 1 20 21
M  V30 21 2 21 22
M  V30 22 1 22 23
M  V30 23 2 23 24
M  V30 24 1 24 25
M  V30 25 1 13 2
M  V30 26 1 25 17
M  V30 27 1 24 19
M  V30 28 1 1 26
M  V30 29 1 1 27
M  V30 30 1 1 28
M  V30 31 1 5 29
M  V30 32 1 5 30
M  V30 33 1 10 31
M  V30 34 1 11 32
M  V30 35 1 14 33
M  V30 36 1 14 34
M  V30 37 1 20 35
M  V30 38 1 21 36
M  V30 39 1 22 37
M  V30 40 1 23 38
M  V30 41 1 25 39
M  V30 END BOND
M  V30 END CTAB
M  END
>  <Dataset>  (268) 
OralDrugs

>  <Ligand_Instance>  (268) 
nan

>  <PDB_ID>  (268) 
nan

>  <Standardized_SMILES>  (268) 
Cc1c(OCC(F)(F)F)ccnc1C[S@@+]([O-])c1nc2ccccc2[nH]1

>  <Name>  (268) 
Dexlansoprazole

>  <Pocket>  (268) 
nan

>  <ATP_Site>  (268) 
nan

>  <Peripheral>  (268) 
nan

>  <Num_H_Atoms_ProtBoundConf>  (268) 
nan

>  <Num_Resolved_Atoms>  (268) 
nan

>  <Num_Not_Resolved_Atoms>  (268) 
nan

$$$$
CHEMBL904
     RDKit          3D

  0  0  0  0  0  0  0  0  0  0999 V3000
M  V30 BEGIN CTAB
M  V30 COUNTS 36 37 0 0 0
M  V30 BEGIN ATOM
M  V30 1 C 1.848864 -4.582205 1.071133 0
M  V30 2 O 1.280522 -3.377369 1.536823 0
M  V30 3 C 1.530248 -2.210401 0.820536 0
M  V30 4 O 2.254242 -2.688635 -0.091393 0
M  V30 5 C 0.927841 -0.960850 1.322436 0 CFG=2
M  V30 6 C -0.548171 -1.021695 1.375144 0
M  V30 7 C -1.096570 -0.318581 2.451537 0
M  V30 8 C -2.471734 -0.255646 2.699174 0
M  V30 9 C -3.285610 -0.933887 1.814074 0
M  V30 10 C -2.772280 -1.639736 0.738118 0
M  V30 11 C -1.404509 -1.666158 0.544341 0
M  V30 12 C 1.343708 0.185754 0.436923 0 CFG=1
M  V30 13 C 0.874743 -0.060708 -0.954751 0
M  V30 14 C 1.265798 1.084575 -1.885852 0
M  V30 15 C 0.519722 2.293600 -1.300658 0
M  V30 16 C 1.060821 2.538038 0.066549 0
M  V30 17 N 0.851614 1.435271 0.981834 0
M  V30 18 H 2.938128 -4.599505 1.118867 0
M  V30 19 H 1.373283 -5.408204 1.656589 0
M  V30 20 H 1.547186 -4.803695 0.009334 0
M  V30 21 H 1.334193 -0.738147 2.358576 0
M  V30 22 H -0.482252 0.234783 3.179624 0
M  V30 23 H -2.854579 0.298677 3.542133 0
M  V30 24 H -4.352032 -0.864064 2.036109 0
M  V30 25 H -3.442087 -2.148307 0.081210 0
M  V30 26 H -0.976800 -2.203751 -0.262863 0
M  V30 27 H 2.474604 0.232977 0.422671 0
M  V30 28 H 1.288293 -0.978063 -1.355542 0
M  V30 29 H -0.251101 -0.072108 -0.927558 0
M  V30 30 H 2.346308 1.221132 -1.886388 0
M  V30 31 H 0.891667 0.851651 -2.883060 0
M  V30 32 H -0.549844 1.967569 -1.287919 0
M  V30 33 H 0.708938 3.150214 -1.942235 0
M  V30 34 H 0.478461 3.396459 0.498592 0
M  V30 35 H 2.091849 2.884123 -0.008194 0
M  V30 36 H 1.470202 1.630021 1.819071 0
M  V30 END ATOM
M  V30 BEGIN BOND
M  V30 1 1 1 2
M  V30 2 1 2 3
M  V30 3 2 3 4
M  V30 4 1 3 5
M  V30 5 1 5 6
M  V30 6 2 6 7
M  V30 7 1 7 8
M  V30 8 2 8 9
M  V30 9 1 9 10
M  V30 10 2 10 11
M  V30 11 1 5 12
M  V30 12 1 12 13
M  V30 13 1 13 14
M  V30 14 1 14 15
M  V30 15 1 15 16
M  V30 16 1 16 17
M  V30 17 1 11 6
M  V30 18 1 17 12
M  V30 19 1 1 18
M  V30 20 1 1 19
M  V30 21 1 1 20
M  V30 22 1 5 21 CFG=1
M  V30 23 1 7 22
M  V30 24 1 8 23
M  V30 25 1 9 24
M  V30 26 1 10 25
M  V30 27 1 11 26
M  V30 28 1 12 27 CFG=3
M  V30 29 1 13 28
M  V30 30 1 13 29
M  V30 31 1 14 30
M  V30 32 1 14 31
M  V30 33 1 15 32
M  V30 34 1 15 33
M  V30 35 1 16 34
M  V30 36 1 16 35
M  V30 37 1 17 36
M  V30 END BOND
M  V30 END CTAB
M  END
>  <Dataset>  (269) 
OralDrugs

>  <Ligand_Instance>  (269) 
nan

>  <PDB_ID>  (269) 
nan

>  <Standardized_SMILES>  (269) 
COC(=O)[C@H](c1ccccc1)[C@H]1CCCCN1

>  <Name>  (269) 
Dexmethylphenidate Hydrochloride

>  <Pocket>  (269) 
nan

>  <ATP_Site>  (269) 
nan

>  <Peripheral>  (269) 
nan

>  <Num_H_Atoms_ProtBoundConf>  (269) 
nan

>  <Num_Resolved_Atoms>  (269) 
nan

>  <Num_Not_Resolved_Atoms>  (269) 
nan

$$$$
CHEMBL612
     RDKit          3D

  0  0  0  0  0  0  0  0  0  0999 V3000
M  V30 BEGIN CTAB
M  V30 COUNTS 23 23 0 0 0
M  V30 BEGIN ATOM
M  V30 1 C 3.449142 -0.231511 0.527421 0
M  V30 2 C 1.973382 -0.128083 0.336922 0 CFG=2
M  V30 3 N 1.684698 1.071703 -0.427096 0
M  V30 4 C 1.200164 -0.144250 1.639577 0
M  V30 5 C -0.259618 -0.035411 1.321349 0
M  V30 6 C -0.887674 -1.270420 1.138183 0
M  V30 7 C -2.251846 -1.320228 0.835292 0
M  V30 8 C -2.879583 -0.114843 0.740215 0
M  V30 9 C -2.308972 1.130263 0.911068 0
M  V30 10 C -0.946584 1.140583 1.212140 0
M  V30 11 H 3.825848 -1.257721 0.312188 0
M  V30 12 H 3.796700 0.028972 1.552318 0
M  V30 13 H 3.974351 0.428463 -0.183483 0
M  V30 14 H 1.620786 -0.988064 -0.275269 0
M  V30 15 H 1.719782 1.931391 0.159932 0
M  V30 16 H 2.254665 1.117256 -1.272580 0
M  V30 17 H 1.468826 0.694385 2.291978 0
M  V30 18 H 1.426443 -1.069616 2.191039 0
M  V30 19 H -0.374730 -2.227328 1.216904 0
M  V30 20 H -2.748622 -2.258464 0.691789 0
M  V30 21 H -3.948047 -0.137874 0.503574 0
M  V30 22 H -2.866197 2.053481 0.821370 0
M  V30 23 H -0.408269 2.064157 1.364282 0
M  V30 END ATOM
M  V30 BEGIN BOND
M  V30 1 1 1 2
M  V30 2 1 2 3
M  V30 3 1 2 4
M  V30 4 1 4 5
M  V30 5 2 5 6
M  V30 6 1 6 7
M  V30 7 2 7 8
M  V30 8 1 8 9
M  V30 9 2 9 10
M  V30 10 1 10 5
M  V30 11 1 1 11
M  V30 12 1 1 12
M  V30 13 1 1 13
M  V30 14 1 2 14 CFG=3
M  V30 15 1 3 15
M  V30 16 1 3 16
M  V30 17 1 4 17
M  V30 18 1 4 18
M  V30 19 1 6 19
M  V30 20 1 7 20
M  V30 21 1 8 21
M  V30 22 1 9 22
M  V30 23 1 10 23
M  V30 END BOND
M  V30 END CTAB
M  END
>  <Dataset>  (270) 
OralDrugs

>  <Ligand_Instance>  (270) 
nan

>  <PDB_ID>  (270) 
nan

>  <Standardized_SMILES>  (270) 
C[C@H](N)Cc1ccccc1

>  <Name>  (270) 
Dextroamphetamine

>  <Pocket>  (270) 
nan

>  <ATP_Site>  (270) 
nan

>  <Peripheral>  (270) 
nan

>  <Num_H_Atoms_ProtBoundConf>  (270) 
nan

>  <Num_Resolved_Atoms>  (270) 
nan

>  <Num_Not_Resolved_Atoms>  (270) 
nan

$$$$
CHEMBL3989844
     RDKit          3D

  0  0  0  0  0  0  0  0  0  0999 V3000
M  V30 BEGIN CTAB
M  V30 COUNTS 24 23 0 0 0
M  V30 BEGIN ATOM
M  V30 1 O 0.354150 -2.854069 2.618600 0
M  V30 2 C 1.221046 -1.928520 2.455396 0
M  V30 3 O 1.027970 -1.734658 3.816018 0
M  V30 4 C 1.645342 -1.873709 1.057173 0 CFG=1
M  V30 5 O 0.968334 -2.853048 0.330809 0
M  V30 6 C 1.407579 -0.536986 0.404449 0 CFG=1
M  V30 7 O 1.867546 -0.516533 -0.910425 0
M  V30 8 C -0.015156 -0.097222 0.447871 0 CFG=2
M  V30 9 O -0.788545 -0.986373 -0.340013 0
M  V30 10 C -0.244472 1.262451 -0.149003 0 CFG=1
M  V30 11 O -1.618478 1.597658 -0.101494 0
M  V30 12 C 0.483364 2.358926 0.510523 0
M  V30 13 O 1.746689 2.478524 0.678344 0
M  V30 14 O 0.334895 3.575379 1.164743 0
M  V30 15 H 0.566904 -0.905949 4.191110 0
M  V30 16 H 2.715097 -2.161708 1.017552 0
M  V30 17 H 0.040989 -2.918295 0.713949 0
M  V30 18 H 2.023625 0.191123 0.970530 0
M  V30 19 H 2.068457 -1.391584 -1.279919 0
M  V30 20 H -0.466939 -0.125432 1.452083 0
M  V30 21 H -0.590607 -0.886267 -1.296523 0
M  V30 22 H 0.007975 1.287535 -1.237954 0
M  V30 23 H -2.098404 0.935495 0.480291 0
M  V30 24 H 0.194777 3.675007 2.159901 0
M  V30 END ATOM
M  V30 BEGIN BOND
M  V30 1 2 1 2
M  V30 2 1 2 3
M  V30 3 1 2 4
M  V30 4 1 4 5
M  V30 5 1 4 6
M  V30 6 1 6 7
M  V30 7 1 6 8
M  V30 8 1 8 9
M  V30 9 1 8 10
M  V30 10 1 10 11
M  V30 11 1 10 12
M  V30 12 2 12 13
M  V30 13 1 12 14
M  V30 14 1 3 15
M  V30 15 1 4 16 CFG=1
M  V30 16 1 5 17
M  V30 17 1 6 18 CFG=1
M  V30 18 1 7 19
M  V30 19 1 8 20 CFG=1
M  V30 20 1 9 21
M  V30 21 1 10 22 CFG=3
M  V30 22 1 11 23
M  V30 23 1 14 24
M  V30 END BOND
M  V30 END CTAB
M  END
>  <Dataset>  (271) 
OralDrugs

>  <Ligand_Instance>  (271) 
nan

>  <PDB_ID>  (271) 
nan

>  <Standardized_SMILES>  (271) 
O=C(O)[C@@H](O)[C@@H](O)[C@H](O)[C@@H](O)C(=O)O

>  <Name>  (271) 
Dextroamphetamine Saccharate

>  <Pocket>  (271) 
nan

>  <ATP_Site>  (271) 
nan

>  <Peripheral>  (271) 
nan

>  <Num_H_Atoms_ProtBoundConf>  (271) 
nan

>  <Num_Resolved_Atoms>  (271) 
nan

>  <Num_Not_Resolved_Atoms>  (271) 
nan

$$$$
CHEMBL52440
     RDKit          3D

  0  0  0  0  0  0  0  0  0  0999 V3000
M  V30 BEGIN CTAB
M  V30 COUNTS 45 48 0 0 0
M  V30 BEGIN ATOM
M  V30 1 C -3.405797 -1.189043 3.685370 0
M  V30 2 O -2.602735 -2.291265 3.368617 0
M  V30 3 C -1.527058 -2.095361 2.502685 0
M  V30 4 C -0.755084 -3.186573 2.206547 0
M  V30 5 C 0.339796 -3.152642 1.368836 0
M  V30 6 C 0.663107 -1.935098 0.802560 0
M  V30 7 C -0.087004 -0.807057 1.072433 0
M  V30 8 C -1.175148 -0.882198 1.915924 0
M  V30 9 C 0.213067 0.501308 0.499767 0 CFG=2
M  V30 10 C -0.965712 1.315459 0.075596 0
M  V30 11 C -1.672407 0.791433 -1.136373 0
M  V30 12 C -0.657355 0.662087 -2.272832 0
M  V30 13 C 0.359270 -0.368305 -1.758002 0
M  V30 14 C 1.141016 0.342070 -0.690546 0 CFG=2
M  V30 15 C 2.292829 -0.474760 -0.232072 0 CFG=2
M  V30 16 C 1.845197 -1.915854 -0.097356 0
M  V30 17 N 2.984450 -0.018269 0.901046 0
M  V30 18 C 3.670251 -1.068536 1.629480 0
M  V30 19 C 2.350567 0.867216 1.791695 0
M  V30 20 C 1.003611 1.385297 1.467483 0
M  V30 21 H -2.788159 -0.377102 4.078778 0
M  V30 22 H -4.177003 -1.532570 4.407199 0
M  V30 23 H -3.879281 -0.814907 2.739353 0
M  V30 24 H -0.993418 -4.156599 2.643168 0
M  V30 25 H 0.929500 -4.035376 1.155613 0
M  V30 26 H -1.806588 -0.035488 2.170280 0
M  V30 27 H -0.553078 2.317139 -0.221658 0
M  V30 28 H -1.690450 1.520734 0.855969 0
M  V30 29 H -2.106021 -0.215785 -0.993506 0
M  V30 30 H -2.474627 1.520704 -1.384239 0
M  V30 31 H -1.202357 0.222193 -3.115484 0
M  V30 32 H -0.187484 1.626147 -2.505640 0
M  V30 33 H -0.282539 -1.181128 -1.345071 0
M  V30 34 H 0.966889 -0.748058 -2.587330 0
M  V30 35 H 1.480397 1.315919 -1.091320 0
M  V30 36 H 3.024726 -0.498118 -1.092474 0
M  V30 37 H 1.598970 -2.329622 -1.101273 0
M  V30 38 H 2.653364 -2.581345 0.295033 0
M  V30 39 H 4.312778 -0.567210 2.381993 0
M  V30 40 H 4.342850 -1.674918 1.008069 0
M  V30 41 H 2.923477 -1.667502 2.211119 0
M  V30 42 H 3.021840 1.765609 1.928221 0
M  V30 43 H 2.303529 0.402823 2.807556 0
M  V30 44 H 0.369137 1.484998 2.388271 0
M  V30 45 H 1.027518 2.386547 0.986661 0
M  V30 END ATOM
M  V30 BEGIN BOND
M  V30 1 1 1 2
M  V30 2 1 2 3
M  V30 3 2 3 4
M  V30 4 1 4 5
M  V30 5 2 5 6
M  V30 6 1 6 7
M  V30 7 2 7 8
M  V30 8 1 7 9
M  V30 9 1 9 10 CFG=3
M  V30 10 1 10 11
M  V30 11 1 11 12
M  V30 12 1 12 13
M  V30 13 1 13 14
M  V30 14 1 14 15
M  V30 15 1 15 16
M  V30 16 1 15 17
M  V30 17 1 17 18
M  V30 18 1 17 19
M  V30 19 1 19 20
M  V30 20 1 8 3
M  V30 21 1 14 9
M  V30 22 1 16 6
M  V30 23 1 20 9
M  V30 24 1 1 21
M  V30 25 1 1 22
M  V30 26 1 1 23
M  V30 27 1 4 24
M  V30 28 1 5 25
M  V30 29 1 8 26
M  V30 30 1 10 27
M  V30 31 1 10 28
M  V30 32 1 11 29
M  V30 33 1 11 30
M  V30 34 1 12 31
M  V30 35 1 12 32
M  V30 36 1 13 33
M  V30 37 1 13 34
M  V30 38 1 14 35 CFG=3
M  V30 39 1 15 36 CFG=3
M  V30 40 1 16 37
M  V30 41 1 16 38
M  V30 42 1 18 39
M  V30 43 1 18 40
M  V30 44 1 18 41
M  V30 45 1 19 42
M  V30 46 1 19 43
M  V30 47 1 20 44
M  V30 48 1 20 45
M  V30 END BOND
M  V30 END CTAB
M  END
>  <Dataset>  (272) 
OralDrugs

>  <Ligand_Instance>  (272) 
nan

>  <PDB_ID>  (272) 
nan

>  <Standardized_SMILES>  (272) 
COc1ccc2c(c1)[C@]13CCCC[C@@H]1[C@H](C2)N(C)CC3

>  <Name>  (272) 
Dextromethorphan

>  <Pocket>  (272) 
nan

>  <ATP_Site>  (272) 
nan

>  <Peripheral>  (272) 
nan

>  <Num_H_Atoms_ProtBoundConf>  (272) 
nan

>  <Num_Resolved_Atoms>  (272) 
nan

>  <Num_Not_Resolved_Atoms>  (272) 
nan

$$$$
CHEMBL559
     RDKit          3D

  0  0  0  0  0  0  0  0  0  0999 V3000
M  V30 BEGIN CTAB
M  V30 COUNTS 35 36 0 0 0
M  V30 BEGIN ATOM
M  V30 1 N -1.087355 -4.546274 1.660866 0
M  V30 2 C 0.121650 -4.420904 2.459461 0 CFG=2
M  V30 3 C 0.144289 -3.004372 2.992810 0
M  V30 4 C 0.157044 -2.091244 1.821493 0
M  V30 5 C 1.274616 -1.602170 1.179495 0
M  V30 6 C 1.177936 -0.756171 0.094382 0
M  V30 7 I 2.999360 -0.112586 -0.754901 0
M  V30 8 C -0.050009 -0.364546 -0.393067 0
M  V30 9 O -0.092246 0.489811 -1.489603 0
M  V30 10 C -0.102186 1.853847 -1.244138 0
M  V30 11 C -0.144076 2.709655 -2.324566 0
M  V30 12 C -0.155242 4.078741 -2.119493 0
M  V30 13 I -0.219509 5.418774 -3.765194 0
M  V30 14 C -0.125327 4.618756 -0.850380 0
M  V30 15 O -0.138125 6.015444 -0.689872 0
M  V30 16 C -0.083703 3.757274 0.218424 0
M  V30 17 I -0.036367 4.509176 2.182134 0
M  V30 18 C -0.072608 2.398409 0.015306 0
M  V30 19 C -1.180588 -0.843758 0.236484 0
M  V30 20 I -3.012936 -0.196076 -0.572127 0
M  V30 21 C -1.068068 -1.695631 1.328919 0
M  V30 22 C 1.307223 -4.636037 1.593627 0
M  V30 23 O 1.124769 -4.869621 0.364729 0
M  V30 24 O 2.587271 -4.583164 2.116239 0
M  V30 25 H -1.931602 -4.316331 2.204366 0
M  V30 26 H -0.986979 -4.089691 0.747701 0
M  V30 27 H 0.102034 -5.130401 3.313781 0
M  V30 28 H 1.095541 -2.841294 3.544536 0
M  V30 29 H -0.732137 -2.817168 3.640722 0
M  V30 30 H 2.231780 -1.916504 1.572260 0
M  V30 31 H -0.169772 2.367081 -3.362215 0
M  V30 32 H -0.335446 6.348604 0.251885 0
M  V30 33 H -0.039916 1.697663 0.844485 0
M  V30 34 H -2.046870 -1.973592 1.698250 0
M  V30 35 H 3.381715 -4.327156 1.512492 0
M  V30 END ATOM
M  V30 BEGIN BOND
M  V30 1 1 1 2
M  V30 2 1 2 3
M  V30 3 1 3 4
M  V30 4 2 4 5
M  V30 5 1 5 6
M  V30 6 1 6 7
M  V30 7 2 6 8
M  V30 8 1 8 9
M  V30 9 1 9 10
M  V30 10 2 10 11
M  V30 11 1 11 12
M  V30 12 1 12 13
M  V30 13 2 12 14
M  V30 14 1 14 15
M  V30 15 1 14 16
M  V30 16 1 16 17
M  V30 17 2 16 18
M  V30 18 1 8 19
M  V30 19 1 19 20
M  V30 20 2 19 21
M  V30 21 1 2 22
M  V30 22 2 22 23
M  V30 23 1 22 24
M  V30 24 1 21 4
M  V30 25 1 18 10
M  V30 26 1 1 25
M  V30 27 1 1 26
M  V30 28 1 2 27 CFG=1
M  V30 29 1 3 28
M  V30 30 1 3 29
M  V30 31 1 5 30
M  V30 32 1 11 31
M  V30 33 1 15 32
M  V30 34 1 18 33
M  V30 35 1 21 34
M  V30 36 1 24 35
M  V30 END BOND
M  V30 END CTAB
M  END
>  <Dataset>  (273) 
OralDrugs

>  <Ligand_Instance>  (273) 
nan

>  <PDB_ID>  (273) 
nan

>  <Standardized_SMILES>  (273) 
N[C@H](Cc1cc(I)c(Oc2cc(I)c(O)c(I)c2)c(I)c1)C(=O)O

>  <Name>  (273) 
Dextrothyroxine

>  <Pocket>  (273) 
nan

>  <ATP_Site>  (273) 
nan

>  <Peripheral>  (273) 
nan

>  <Num_H_Atoms_ProtBoundConf>  (273) 
nan

>  <Num_Resolved_Atoms>  (273) 
nan

>  <Num_Not_Resolved_Atoms>  (273) 
nan

$$$$
CHEMBL1200839
     RDKit          3D

  0  0  0  0  0  0  0  0  0  0999 V3000
M  V30 BEGIN CTAB
M  V30 COUNTS 30 29 0 0 0
M  V30 BEGIN ATOM
M  V30 1 C 1.476600 1.629212 2.541916 0
M  V30 2 N 1.324507 0.456397 3.341514 0
M  V30 3 C 0.998922 -0.747982 2.552379 0
M  V30 4 C -0.373162 -0.543918 2.018455 0 CFG=2
M  V30 5 O -1.200361 -0.388900 3.163512 0
M  V30 6 C -0.909067 -1.622071 1.152392 0 CFG=1
M  V30 7 O -2.204416 -1.304528 0.734586 0
M  V30 8 C -0.133821 -2.124182 0.020048 0 CFG=2
M  V30 9 O 1.193233 -2.468410 0.304340 0
M  V30 10 C -0.202909 -1.418628 -1.281926 0 CFG=2
M  V30 11 O 0.308077 -2.315713 -2.251726 0
M  V30 12 C 0.531307 -0.143189 -1.436969 0
M  V30 13 O 0.344227 0.376928 -2.722636 0
M  V30 14 H 2.381967 2.215271 2.879897 0
M  V30 15 H 0.611646 2.315915 2.729068 0
M  V30 16 H 1.603233 1.439387 1.461114 0
M  V30 17 H 2.201282 0.312715 3.912294 0
M  V30 18 H 1.038012 -1.546296 3.340501 0
M  V30 19 H 1.809002 -0.813914 1.819998 0
M  V30 20 H -0.419918 0.458621 1.540857 0
M  V30 21 H -0.852724 -0.925366 3.917334 0
M  V30 22 H -1.099630 -2.489087 1.866118 0
M  V30 23 H -2.469619 -1.842349 -0.062742 0
M  V30 24 H -0.562616 -3.156271 -0.223237 0
M  V30 25 H 1.246531 -3.170849 1.003212 0
M  V30 26 H -1.261249 -1.262022 -1.621740 0
M  V30 27 H 0.551392 -1.893565 -3.088192 0
M  V30 28 H 1.630321 -0.245108 -1.312922 0
M  V30 29 H 0.224515 0.661517 -0.748156 0
M  V30 30 H -0.582407 0.539243 -2.966384 0
M  V30 END ATOM
M  V30 BEGIN BOND
M  V30 1 1 1 2
M  V30 2 1 2 3
M  V30 3 1 3 4
M  V30 4 1 4 5
M  V30 5 1 4 6
M  V30 6 1 6 7
M  V30 7 1 6 8
M  V30 8 1 8 9
M  V30 9 1 8 10
M  V30 10 1 10 11
M  V30 11 1 10 12
M  V30 12 1 12 13
M  V30 13 1 1 14
M  V30 14 1 1 15
M  V30 15 1 1 16
M  V30 16 1 2 17
M  V30 17 1 3 18
M  V30 18 1 3 19
M  V30 19 1 4 20 CFG=3
M  V30 20 1 5 21
M  V30 21 1 6 22 CFG=1
M  V30 22 1 7 23
M  V30 23 1 8 24 CFG=3
M  V30 24 1 9 25
M  V30 25 1 10 26 CFG=3
M  V30 26 1 11 27
M  V30 27 1 12 28
M  V30 28 1 12 29
M  V30 29 1 13 30
M  V30 END BOND
M  V30 END CTAB
M  END
>  <Dataset>  (274) 
OralDrugs

>  <Ligand_Instance>  (274) 
nan

>  <PDB_ID>  (274) 
nan

>  <Standardized_SMILES>  (274) 
CNC[C@H](O)[C@@H](O)[C@H](O)[C@H](O)CO

>  <Name>  (274) 
Diatrizoate Meglumine

>  <Pocket>  (274) 
nan

>  <ATP_Site>  (274) 
nan

>  <Peripheral>  (274) 
nan

>  <Num_H_Atoms_ProtBoundConf>  (274) 
nan

>  <Num_Resolved_Atoms>  (274) 
nan

>  <Num_Not_Resolved_Atoms>  (274) 
nan

$$$$
CHEMBL1200581
     RDKit          3D

  0  0  0  0  0  0  0  0  0  0999 V3000
M  V30 BEGIN CTAB
M  V30 COUNTS 29 29 0 0 0
M  V30 BEGIN ATOM
M  V30 1 C 1.726258 -3.293977 4.637350 0
M  V30 2 C 1.762728 -2.023446 3.863672 0
M  V30 3 O 2.650378 -1.160795 4.116220 0
M  V30 4 N 0.766865 -1.897449 2.885971 0
M  V30 5 C 0.404975 -0.907087 1.931055 0
M  V30 6 C 0.988642 -0.983994 0.667363 0
M  V30 7 I 2.352018 -2.473140 0.130406 0
M  V30 8 C 0.661455 -0.040699 -0.284303 0
M  V30 9 N 1.203705 -0.023610 -1.621602 0
M  V30 10 C 0.353378 -0.795234 -2.447419 0
M  V30 11 C 0.549381 -1.038861 -3.911087 0
M  V30 12 O -0.639184 -1.288734 -1.813452 0
M  V30 13 C -0.226792 0.985629 -0.038006 0
M  V30 14 I -0.760398 2.443598 -1.441651 0
M  V30 15 C -0.792579 1.044398 1.216080 0
M  V30 16 C -1.753155 2.119302 1.546992 0
M  V30 17 O -1.612133 3.273548 2.027297 0
M  V30 18 O -3.065595 1.728568 1.249608 0
M  V30 19 C -0.495790 0.118385 2.209075 0
M  V30 20 I -1.372263 0.225353 4.122457 0
M  V30 21 H 1.070994 -3.168953 5.525999 0
M  V30 22 H 2.753337 -3.599328 4.944554 0
M  V30 23 H 1.315596 -4.142317 4.049079 0
M  V30 24 H 0.041114 -2.628526 2.695842 0
M  V30 25 H 2.048975 0.415867 -2.086119 0
M  V30 26 H 1.306220 -1.808659 -4.116176 0
M  V30 27 H -0.434552 -1.435110 -4.286513 0
M  V30 28 H 0.749170 -0.107233 -4.478616 0
M  V30 29 H -3.829851 2.410105 1.354617 0
M  V30 END ATOM
M  V30 BEGIN BOND
M  V30 1 1 1 2
M  V30 2 2 2 3
M  V30 3 1 2 4
M  V30 4 1 4 5
M  V30 5 2 5 6
M  V30 6 1 6 7
M  V30 7 1 6 8
M  V30 8 1 8 9
M  V30 9 1 9 10
M  V30 10 1 10 11
M  V30 11 2 10 12
M  V30 12 2 8 13
M  V30 13 1 13 14
M  V30 14 1 13 15
M  V30 15 1 15 16
M  V30 16 2 16 17
M  V30 17 1 16 18
M  V30 18 2 15 19
M  V30 19 1 19 20
M  V30 20 1 19 5
M  V30 21 1 1 21
M  V30 22 1 1 22
M  V30 23 1 1 23
M  V30 24 1 4 24
M  V30 25 1 9 25
M  V30 26 1 11 26
M  V30 27 1 11 27
M  V30 28 1 11 28
M  V30 29 1 18 29
M  V30 END BOND
M  V30 END CTAB
M  END
>  <Dataset>  (275) 
OralDrugs

>  <Ligand_Instance>  (275) 
nan

>  <PDB_ID>  (275) 
nan

>  <Standardized_SMILES>  (275) 
CC(=O)Nc1c(I)c(NC(C)=O)c(I)c(C(=O)O)c1I

>  <Name>  (275) 
Diatrizoate Sodium

>  <Pocket>  (275) 
nan

>  <ATP_Site>  (275) 
nan

>  <Peripheral>  (275) 
nan

>  <Num_H_Atoms_ProtBoundConf>  (275) 
nan

>  <Num_Resolved_Atoms>  (275) 
nan

>  <Num_Not_Resolved_Atoms>  (275) 
nan

$$$$
CHEMBL12
     RDKit          3D

  0  0  0  0  0  0  0  0  0  0999 V3000
M  V30 BEGIN CTAB
M  V30 COUNTS 33 35 0 0 0
M  V30 BEGIN ATOM
M  V30 1 C -2.289213 -1.388823 3.534626 0
M  V30 2 N -1.485688 -1.745847 2.405967 0
M  V30 3 C -0.550077 -2.852502 2.341341 0
M  V30 4 O -0.559961 -3.431816 3.484344 0
M  V30 5 C 0.299141 -3.296817 1.199466 0
M  V30 6 N 1.018528 -2.203766 0.594491 0
M  V30 7 C 0.620636 -1.030261 0.198711 0
M  V30 8 C 1.598984 -0.155613 -0.364903 0
M  V30 9 C 2.843328 -0.754212 -0.590565 0
M  V30 10 C 3.974211 -0.114941 -1.058978 0
M  V30 11 C 3.919223 1.225416 -1.341313 0
M  V30 12 C 2.732722 1.877495 -1.142869 0
M  V30 13 C 1.657429 1.165117 -0.673155 0
M  V30 14 C -0.780445 -0.615857 0.258972 0
M  V30 15 C -1.087520 0.169850 -0.866119 0
M  V30 16 C -2.372961 0.667526 -0.905654 0
M  V30 17 Cl -2.766973 1.641535 -2.282999 0
M  V30 18 C -3.305831 0.410958 0.094195 0
M  V30 19 C -2.991227 -0.363961 1.188452 0
M  V30 20 C -1.693454 -0.888960 1.265482 0
M  V30 21 H -2.341531 -0.291870 3.695715 0
M  V30 22 H -3.271173 -1.902223 3.573564 0
M  V30 23 H -1.744089 -1.767898 4.436874 0
M  V30 24 H 1.044771 -3.991434 1.626078 0
M  V30 25 H -0.332977 -3.810509 0.466472 0
M  V30 26 H 3.032338 -1.817011 -0.408911 0
M  V30 27 H 4.918702 -0.601013 -1.223265 0
M  V30 28 H 4.744483 1.781674 -1.704048 0
M  V30 29 H 2.620763 2.920468 -1.342414 0
M  V30 30 H 0.750532 1.713364 -0.470888 0
M  V30 31 H -0.344039 0.302684 -1.633720 0
M  V30 32 H -4.300185 0.801087 0.057232 0
M  V30 33 H -3.617464 -0.633911 2.022927 0
M  V30 END ATOM
M  V30 BEGIN BOND
M  V30 1 1 1 2
M  V30 2 1 2 3
M  V30 3 2 3 4
M  V30 4 1 3 5
M  V30 5 1 5 6
M  V30 6 2 6 7
M  V30 7 1 7 8
M  V30 8 2 8 9
M  V30 9 1 9 10
M  V30 10 2 10 11
M  V30 11 1 11 12
M  V30 12 2 12 13
M  V30 13 1 7 14
M  V30 14 2 14 15
M  V30 15 1 15 16
M  V30 16 1 16 17
M  V30 17 2 16 18
M  V30 18 1 18 19
M  V30 19 2 19 20
M  V30 20 1 20 2
M  V30 21 1 13 8
M  V30 22 1 20 14
M  V30 23 1 1 21
M  V30 24 1 1 22
M  V30 25 1 1 23
M  V30 26 1 5 24
M  V30 27 1 5 25
M  V30 28 1 9 26
M  V30 29 1 10 27
M  V30 30 1 11 28
M  V30 31 1 12 29
M  V30 32 1 13 30
M  V30 33 1 15 31
M  V30 34 1 18 32
M  V30 35 1 19 33
M  V30 END BOND
M  V30 END CTAB
M  END
>  <Dataset>  (276) 
OralDrugs

>  <Ligand_Instance>  (276) 
nan

>  <PDB_ID>  (276) 
nan

>  <Standardized_SMILES>  (276) 
CN1C(=O)CN=C(c2ccccc2)c2cc(Cl)ccc21

>  <Name>  (276) 
Diazepam

>  <Pocket>  (276) 
nan

>  <ATP_Site>  (276) 
nan

>  <Peripheral>  (276) 
nan

>  <Num_H_Atoms_ProtBoundConf>  (276) 
nan

>  <Num_Resolved_Atoms>  (276) 
nan

>  <Num_Not_Resolved_Atoms>  (276) 
nan

$$$$
CHEMBL181
     RDKit          3D

  0  0  0  0  0  0  0  0  0  0999 V3000
M  V30 BEGIN CTAB
M  V30 COUNTS 21 22 0 0 0
M  V30 BEGIN ATOM
M  V30 1 C 1.765364 1.273250 3.747708 0
M  V30 2 C 1.273437 0.876378 2.408667 0
M  V30 3 N 0.856237 -0.294475 2.119076 0
M  V30 4 C 0.384893 -0.699132 0.860585 0
M  V30 5 C -0.004974 -2.023305 0.825754 0
M  V30 6 C -0.496726 -2.597803 -0.330347 0
M  V30 7 C -0.587807 -1.805134 -1.457026 0
M  V30 8 Cl -1.197096 -2.414968 -2.992873 0
M  V30 9 C -0.184409 -0.489667 -1.365539 0
M  V30 10 C 0.308158 0.119301 -0.241595 0
M  V30 11 S 0.815108 1.788114 -0.144875 0
M  V30 12 O -0.355567 2.664696 -0.462745 0
M  V30 13 O 1.916662 2.077483 -1.125488 0
M  V30 14 N 1.324690 1.957381 1.495981 0
M  V30 15 H 1.231579 2.172303 4.141382 0
M  V30 16 H 2.864342 1.474511 3.734576 0
M  V30 17 H 1.585434 0.486720 4.510667 0
M  V30 18 H 0.037263 -2.711497 1.673642 0
M  V30 19 H -0.828762 -3.616761 -0.470363 0
M  V30 20 H -0.266481 0.122472 -2.277174 0
M  V30 21 H 1.606494 2.925300 1.518543 0
M  V30 END ATOM
M  V30 BEGIN BOND
M  V30 1 1 1 2
M  V30 2 2 2 3
M  V30 3 1 3 4
M  V30 4 2 4 5
M  V30 5 1 5 6
M  V30 6 2 6 7
M  V30 7 1 7 8
M  V30 8 1 7 9
M  V30 9 2 9 10
M  V30 10 1 10 11
M  V30 11 2 11 12
M  V30 12 2 11 13
M  V30 13 1 11 14
M  V30 14 1 14 2
M  V30 15 1 10 4
M  V30 16 1 1 15
M  V30 17 1 1 16
M  V30 18 1 1 17
M  V30 19 1 5 18
M  V30 20 1 6 19
M  V30 21 1 9 20
M  V30 22 1 14 21
M  V30 END BOND
M  V30 END CTAB
M  END
>  <Dataset>  (277) 
OralDrugs

>  <Ligand_Instance>  (277) 
nan

>  <PDB_ID>  (277) 
nan

>  <Standardized_SMILES>  (277) 
CC1=Nc2ccc(Cl)cc2S(=O)(=O)N1

>  <Name>  (277) 
Diazoxide

>  <Pocket>  (277) 
nan

>  <ATP_Site>  (277) 
nan

>  <Peripheral>  (277) 
nan

>  <Num_H_Atoms_ProtBoundConf>  (277) 
nan

>  <Num_Resolved_Atoms>  (277) 
nan

>  <Num_Not_Resolved_Atoms>  (277) 
nan

$$$$
CHEMBL17
     RDKit          3D

  0  0  0  0  0  0  0  0  0  0999 V3000
M  V30 BEGIN CTAB
M  V30 COUNTS 22 22 0 0 0
M  V30 BEGIN ATOM
M  V30 1 N -0.947049 -2.546563 2.941751 0
M  V30 2 S 0.671488 -2.101169 2.581186 0
M  V30 3 O 1.304291 -1.372816 3.714561 0
M  V30 4 O 1.491562 -3.324714 2.277156 0
M  V30 5 C 0.685885 -1.112774 1.145094 0
M  V30 6 C 0.810859 -1.670585 -0.128772 0
M  V30 7 C 0.820388 -0.873899 -1.253575 0
M  V30 8 Cl 0.978171 -1.599634 -2.835063 0
M  V30 9 C 0.704408 0.502741 -1.123202 0
M  V30 10 Cl 0.715352 1.534948 -2.559077 0
M  V30 11 C 0.581792 1.037919 0.141469 0
M  V30 12 S 0.434418 2.776528 0.319410 0
M  V30 13 N 0.292740 3.282993 1.917356 0
M  V30 14 O 1.693504 3.377080 -0.279378 0
M  V30 15 O -0.767342 3.255376 -0.446033 0
M  V30 16 C 0.568810 0.268112 1.287345 0
M  V30 17 H -1.260470 -1.973874 3.740611 0
M  V30 18 H -1.553699 -2.424970 2.099449 0
M  V30 19 H 0.896891 -2.745283 -0.159357 0
M  V30 20 H 0.905335 2.878785 2.629991 0
M  V30 21 H -0.614233 3.649850 2.221949 0
M  V30 22 H 0.473425 0.674367 2.283389 0
M  V30 END ATOM
M  V30 BEGIN BOND
M  V30 1 1 1 2
M  V30 2 2 2 3
M  V30 3 2 2 4
M  V30 4 1 2 5
M  V30 5 2 5 6
M  V30 6 1 6 7
M  V30 7 1 7 8
M  V30 8 2 7 9
M  V30 9 1 9 10
M  V30 10 1 9 11
M  V30 11 1 11 12
M  V30 12 1 12 13
M  V30 13 2 12 14
M  V30 14 2 12 15
M  V30 15 2 11 16
M  V30 16 1 16 5
M  V30 17 1 1 17
M  V30 18 1 1 18
M  V30 19 1 6 19
M  V30 20 1 13 20
M  V30 21 1 13 21
M  V30 22 1 16 22
M  V30 END BOND
M  V30 END CTAB
M  END
>  <Dataset>  (278) 
OralDrugs

>  <Ligand_Instance>  (278) 
nan

>  <PDB_ID>  (278) 
nan

>  <Standardized_SMILES>  (278) 
NS(=O)(=O)c1cc(Cl)c(Cl)c(S(N)(=O)=O)c1

>  <Name>  (278) 
Dichlorphenamide

>  <Pocket>  (278) 
nan

>  <ATP_Site>  (278) 
nan

>  <Peripheral>  (278) 
nan

>  <Num_H_Atoms_ProtBoundConf>  (278) 
nan

>  <Num_Resolved_Atoms>  (278) 
nan

>  <Num_Not_Resolved_Atoms>  (278) 
nan

$$$$
CHEMBL139
     RDKit          3D

  0  0  0  0  0  0  0  0  0  0999 V3000
M  V30 BEGIN CTAB
M  V30 COUNTS 30 31 0 0 0
M  V30 BEGIN ATOM
M  V30 1 O 0.029073 -0.186844 3.551296 0
M  V30 2 C 0.390765 -1.060817 2.674313 0
M  V30 3 O -0.689898 -1.865200 2.361219 0
M  V30 4 C 1.684277 -1.356989 1.958712 0
M  V30 5 C 1.384902 -2.000005 0.681690 0
M  V30 6 C 1.497131 -3.390027 0.649277 0
M  V30 7 C 1.194866 -4.131462 -0.504072 0
M  V30 8 C 0.786235 -3.415765 -1.595915 0
M  V30 9 C 0.671146 -2.021169 -1.593401 0
M  V30 10 C 0.976859 -1.307056 -0.427872 0
M  V30 11 N 0.797669 0.104179 -0.510425 0
M  V30 12 C -0.014267 0.938119 0.301006 0
M  V30 13 C 0.577921 1.979915 1.037618 0
M  V30 14 Cl 2.266307 2.387083 0.968443 0
M  V30 15 C -0.307695 2.710739 1.842450 0
M  V30 16 C -1.667861 2.430232 1.905509 0
M  V30 17 C -2.176433 1.397719 1.155372 0
M  V30 18 C -1.356659 0.632690 0.340135 0
M  V30 19 Cl -1.982678 -0.706115 -0.618560 0
M  V30 20 H -1.418066 -2.147325 2.996430 0
M  V30 21 H 2.259466 -2.029873 2.625969 0
M  V30 22 H 2.275793 -0.422687 1.854948 0
M  V30 23 H 1.822454 -3.938606 1.517414 0
M  V30 24 H 1.287888 -5.213721 -0.447155 0
M  V30 25 H 0.545481 -4.034194 -2.475930 0
M  V30 26 H 0.351619 -1.637054 -2.540063 0
M  V30 27 H 1.372076 0.511383 -1.303285 0
M  V30 28 H 0.147053 3.516027 2.421142 0
M  V30 29 H -2.278679 3.037021 2.544197 0
M  V30 30 H -3.223870 1.202661 1.212441 0
M  V30 END ATOM
M  V30 BEGIN BOND
M  V30 1 2 1 2
M  V30 2 1 2 3
M  V30 3 1 2 4
M  V30 4 1 4 5
M  V30 5 2 5 6
M  V30 6 1 6 7
M  V30 7 2 7 8
M  V30 8 1 8 9
M  V30 9 2 9 10
M  V30 10 1 10 11
M  V30 11 1 11 12
M  V30 12 2 12 13
M  V30 13 1 13 14
M  V30 14 1 13 15
M  V30 15 2 15 16
M  V30 16 1 16 17
M  V30 17 2 17 18
M  V30 18 1 18 19
M  V30 19 1 10 5
M  V30 20 1 18 12
M  V30 21 1 3 20
M  V30 22 1 4 21
M  V30 23 1 4 22
M  V30 24 1 6 23
M  V30 25 1 7 24
M  V30 26 1 8 25
M  V30 27 1 9 26
M  V30 28 1 11 27
M  V30 29 1 15 28
M  V30 30 1 16 29
M  V30 31 1 17 30
M  V30 END BOND
M  V30 END CTAB
M  END
>  <Dataset>  (279) 
OralDrugs

>  <Ligand_Instance>  (279) 
nan

>  <PDB_ID>  (279) 
nan

>  <Standardized_SMILES>  (279) 
O=C(O)Cc1ccccc1Nc1c(Cl)cccc1Cl

>  <Name>  (279) 
Diclofenac

>  <Pocket>  (279) 
nan

>  <ATP_Site>  (279) 
nan

>  <Peripheral>  (279) 
nan

>  <Num_H_Atoms_ProtBoundConf>  (279) 
nan

>  <Num_Resolved_Atoms>  (279) 
nan

>  <Num_Not_Resolved_Atoms>  (279) 
nan

$$$$
CHEMBL893
     RDKit          3D

  0  0  0  0  0  0  0  0  0  0999 V3000
M  V30 BEGIN CTAB
M  V30 COUNTS 47 50 0 0 0
M  V30 BEGIN ATOM
M  V30 1 C 0.755632 -1.290184 3.820921 0
M  V30 2 C 1.885203 -0.359333 3.566209 0
M  V30 3 O 2.957188 -0.111555 4.270857 0
M  V30 4 N 3.674086 0.791047 3.644932 0
M  V30 5 C 3.053388 1.138856 2.505466 0
M  V30 6 C 3.622403 2.141339 1.582768 0
M  V30 7 C 3.333868 3.494913 1.694218 0
M  V30 8 Cl 2.261979 4.013506 2.971684 0
M  V30 9 C 3.888233 4.407625 0.807455 0
M  V30 10 C 4.727079 3.956306 -0.183560 0
M  V30 11 C 5.041630 2.601871 -0.328266 0
M  V30 12 C 4.467213 1.725985 0.577209 0
M  V30 13 Cl 4.863743 0.033133 0.392084 0
M  V30 14 C 1.867361 0.398940 2.419319 0
M  V30 15 C 1.020604 0.608661 1.258982 0
M  V30 16 O 1.266319 1.416602 0.301212 0
M  V30 17 N -0.211516 -0.022924 0.966236 0
M  V30 18 C -0.993009 0.235420 -0.201314 0 CFG=2
M  V30 19 C -2.435992 0.468944 0.006044 0
M  V30 20 O -3.096074 1.500852 0.276629 0
M  V30 21 N -2.683942 -0.936250 -0.232892 0
M  V30 22 C -1.407875 -1.019558 -0.916744 0 CFG=2
M  V30 23 S -0.808759 -2.582682 -0.214015 0
M  V30 24 C -2.392573 -3.203266 0.418559 0
M  V30 25 C -2.656780 -4.618564 0.059719 0
M  V30 26 C -2.494562 -3.025859 1.917141 0
M  V30 27 C -3.349913 -2.225579 -0.223722 0 CFG=2
M  V30 28 C -3.609591 -2.539852 -1.667049 0
M  V30 29 O -3.381543 -1.936993 -2.772671 0
M  V30 30 O -4.155091 -3.502576 -2.498975 0
M  V30 31 H 0.942192 -1.836332 4.797081 0
M  V30 32 H -0.215063 -0.778712 3.971239 0
M  V30 33 H 0.680780 -2.110115 3.074059 0
M  V30 34 H 3.660555 5.474921 0.895543 0
M  V30 35 H 5.173090 4.665238 -0.892155 0
M  V30 36 H 5.708202 2.329491 -1.132201 0
M  V30 37 H -0.583609 -0.723701 1.637934 0
M  V30 38 H -0.602313 0.978071 -0.917559 0
M  V30 39 H -1.410085 -0.967174 -2.007828 0
M  V30 40 H -2.265768 -4.941020 -0.911105 0
M  V30 41 H -2.282630 -5.252084 0.895822 0
M  V30 42 H -3.759298 -4.750362 0.037029 0
M  V30 43 H -1.440923 -2.976052 2.288390 0
M  V30 44 H -2.929592 -3.941085 2.374933 0
M  V30 45 H -3.081078 -2.141444 2.202835 0
M  V30 46 H -4.304887 -2.157578 0.335422 0
M  V30 47 H -3.708196 -4.375159 -2.746280 0
M  V30 END ATOM
M  V30 BEGIN BOND
M  V30 1 1 1 2
M  V30 2 1 2 3
M  V30 3 1 3 4
M  V30 4 2 4 5
M  V30 5 1 5 6
M  V30 6 2 6 7
M  V30 7 1 7 8
M  V30 8 1 7 9
M  V30 9 2 9 10
M  V30 10 1 10 11
M  V30 11 2 11 12
M  V30 12 1 12 13
M  V30 13 1 5 14
M  V30 14 1 14 15
M  V30 15 2 15 16
M  V30 16 1 15 17
M  V30 17 1 17 18
M  V30 18 1 18 19
M  V30 19 2 19 20
M  V30 20 1 19 21
M  V30 21 1 21 22
M  V30 22 1 22 23
M  V30 23 1 23 24
M  V30 24 1 24 25
M  V30 25 1 24 26
M  V30 26 1 24 27
M  V30 27 1 27 28
M  V30 28 2 28 29
M  V30 29 1 28 30
M  V30 30 2 14 2
M  V30 31 1 22 18
M  V30 32 1 12 6
M  V30 33 1 27 21
M  V30 34 1 1 31
M  V30 35 1 1 32
M  V30 36 1 1 33
M  V30 37 1 9 34
M  V30 38 1 10 35
M  V30 39 1 11 36
M  V30 40 1 17 37
M  V30 41 1 18 38 CFG=3
M  V30 42 1 22 39 CFG=3
M  V30 43 1 25 40
M  V30 44 1 25 41
M  V30 45 1 25 42
M  V30 46 1 26 43
M  V30 47 1 26 44
M  V30 48 1 26 45
M  V30 49 1 27 46 CFG=1
M  V30 50 1 30 47
M  V30 END BOND
M  V30 END CTAB
M  END
>  <Dataset>  (280) 
OralDrugs

>  <Ligand_Instance>  (280) 
nan

>  <PDB_ID>  (280) 
nan

>  <Standardized_SMILES>  (280) 
Cc1onc(-c2c(Cl)cccc2Cl)c1C(=O)N[C@@H]1C(=O)N2[C@@H]1SC(C)(C)[C@@H]2C(=O)O

>  <Name>  (280) 
Dicloxacillin

>  <Pocket>  (280) 
nan

>  <ATP_Site>  (280) 
nan

>  <Peripheral>  (280) 
nan

>  <Num_H_Atoms_ProtBoundConf>  (280) 
nan

>  <Num_Resolved_Atoms>  (280) 
nan

>  <Num_Not_Resolved_Atoms>  (280) 
nan

$$$$
CHEMBL1466
     RDKit          3D

  0  0  0  0  0  0  0  0  0  0999 V3000
M  V30 BEGIN CTAB
M  V30 COUNTS 37 40 0 0 0
M  V30 BEGIN ATOM
M  V30 1 O -0.389285 -0.629699 3.618177 0
M  V30 2 C 0.643488 -0.266258 3.001537 0
M  V30 3 O 1.757965 -0.742112 3.496661 0
M  V30 4 C 2.919222 -0.448786 2.957697 0
M  V30 5 C 4.119975 -0.944140 3.467330 0
M  V30 6 C 5.351441 -0.645055 2.911750 0
M  V30 7 C 5.321402 0.184318 1.807298 0
M  V30 8 C 4.132236 0.669902 1.309171 0
M  V30 9 C 2.920878 0.374119 1.858018 0
M  V30 10 C 1.744832 0.866745 1.348692 0
M  V30 11 O 1.866759 1.679625 0.250618 0
M  V30 12 C 0.503715 0.560615 1.913829 0
M  V30 13 C -0.747291 1.102776 1.368345 0
M  V30 14 C -1.523615 0.078397 0.644572 0
M  V30 15 C -1.261718 -0.453384 -0.598304 0
M  V30 16 O -0.163883 -0.018495 -1.267415 0
M  V30 17 C -2.061158 -1.405940 -1.195092 0
M  V30 18 C -1.710955 -1.880693 -2.453706 0
M  V30 19 C -2.530284 -2.837242 -3.031459 0
M  V30 20 C -3.650042 -3.288465 -2.362551 0
M  V30 21 C -4.014669 -2.829369 -1.112050 0
M  V30 22 C -3.182865 -1.864333 -0.535742 0
M  V30 23 O -3.479609 -1.380712 0.669506 0
M  V30 24 C -2.684860 -0.461384 1.215372 0
M  V30 25 O -3.120311 -0.125263 2.343709 0
M  V30 26 H 3.990752 -1.575873 4.327840 0
M  V30 27 H 6.219354 -1.076185 3.378119 0
M  V30 28 H 6.295388 0.425270 1.362082 0
M  V30 29 H 4.222156 1.310490 0.442047 0
M  V30 30 H 2.396759 1.325505 -0.540597 0
M  V30 31 H -0.597281 2.025576 0.773910 0
M  V30 32 H -1.375753 1.443101 2.241014 0
M  V30 33 H -0.028804 0.855433 -1.738241 0
M  V30 34 H -0.845914 -1.554038 -3.008303 0
M  V30 35 H -2.271523 -3.216912 -4.011526 0
M  V30 36 H -4.280914 -4.039481 -2.831114 0
M  V30 37 H -4.887940 -3.174477 -0.578222 0
M  V30 END ATOM
M  V30 BEGIN BOND
M  V30 1 2 1 2
M  V30 2 1 2 3
M  V30 3 1 3 4
M  V30 4 2 4 5
M  V30 5 1 5 6
M  V30 6 2 6 7
M  V30 7 1 7 8
M  V30 8 2 8 9
M  V30 9 1 9 10
M  V30 10 1 10 11
M  V30 11 2 10 12
M  V30 12 1 12 13
M  V30 13 1 13 14
M  V30 14 2 14 15
M  V30 15 1 15 16
M  V30 16 1 15 17
M  V30 17 2 17 18
M  V30 18 1 18 19
M  V30 19 2 19 20
M  V30 20 1 20 21
M  V30 21 2 21 22
M  V30 22 1 22 23
M  V30 23 1 23 24
M  V30 24 2 24 25
M  V30 25 1 12 2
M  V30 26 1 24 14
M  V30 27 1 9 4
M  V30 28 1 22 17
M  V30 29 1 5 26
M  V30 30 1 6 27
M  V30 31 1 7 28
M  V30 32 1 8 29
M  V30 33 1 11 30
M  V30 34 1 13 31
M  V30 35 1 13 32
M  V30 36 1 16 33
M  V30 37 1 18 34
M  V30 38 1 19 35
M  V30 39 1 20 36
M  V30 40 1 21 37
M  V30 END BOND
M  V30 END CTAB
M  END
>  <Dataset>  (281) 
OralDrugs

>  <Ligand_Instance>  (281) 
nan

>  <PDB_ID>  (281) 
nan

>  <Standardized_SMILES>  (281) 
O=c1oc2ccccc2c(O)c1Cc1c(O)c2ccccc2oc1=O

>  <Name>  (281) 
Dicumarol

>  <Pocket>  (281) 
nan

>  <ATP_Site>  (281) 
nan

>  <Peripheral>  (281) 
nan

>  <Num_H_Atoms_ProtBoundConf>  (281) 
nan

>  <Num_Resolved_Atoms>  (281) 
nan

>  <Num_Not_Resolved_Atoms>  (281) 
nan

$$$$
CHEMBL1123
     RDKit          3D

  0  0  0  0  0  0  0  0  0  0999 V3000
M  V30 BEGIN CTAB
M  V30 COUNTS 57 58 0 0 0
M  V30 BEGIN ATOM
M  V30 1 C 0.989351 -4.586233 3.485238 0
M  V30 2 C 1.575201 -4.717354 2.109512 0
M  V30 3 N 1.666862 -3.316941 1.554087 0
M  V30 4 C 2.673925 -2.707494 2.374665 0
M  V30 5 C 2.893237 -1.241747 2.207426 0
M  V30 6 C 1.998074 -3.468807 0.161182 0
M  V30 7 C 2.035611 -2.209667 -0.631713 0
M  V30 8 O 0.736494 -1.600865 -0.563068 0
M  V30 9 C 0.477263 -0.419365 -1.250855 0
M  V30 10 O 1.546848 -0.121740 -1.837614 0
M  V30 11 C -0.933580 0.094823 -1.079391 0
M  V30 12 C -1.056958 0.417178 0.410155 0
M  V30 13 C -0.030725 1.465016 0.692507 0
M  V30 14 C -0.111067 2.088355 2.046781 0
M  V30 15 C -1.441057 1.862695 2.726357 0
M  V30 16 C -2.476021 2.070122 1.638348 0
M  V30 17 C -2.439710 0.757222 0.844082 0
M  V30 18 C -1.841690 -1.048911 -1.359749 0
M  V30 19 C -2.309449 -1.172800 -2.779442 0
M  V30 20 C -2.869272 0.169975 -3.215216 0
M  V30 21 C -1.655664 1.080118 -3.288811 0
M  V30 22 C -1.082548 1.297815 -1.930663 0
M  V30 23 H 0.443249 -3.614112 3.596540 0
M  V30 24 H 1.760580 -4.701017 4.284220 0
M  V30 25 H 0.237866 -5.407415 3.669801 0
M  V30 26 H 0.902485 -5.260131 1.412143 0
M  V30 27 H 2.584029 -5.155558 2.098702 0
M  V30 28 H 3.666862 -3.211063 2.255168 0
M  V30 29 H 2.340952 -2.892171 3.438847 0
M  V30 30 H 2.057914 -0.769812 1.692320 0
M  V30 31 H 3.836804 -0.990992 1.663058 0
M  V30 32 H 2.945484 -0.738025 3.236957 0
M  V30 33 H 1.224256 -4.126206 -0.330065 0
M  V30 34 H 2.954961 -4.035578 0.024062 0
M  V30 35 H 2.844033 -1.541179 -0.364076 0
M  V30 36 H 2.219400 -2.477301 -1.736429 0
M  V30 37 H -0.750768 -0.518407 0.926253 0
M  V30 38 H -0.108453 2.253837 -0.104138 0
M  V30 39 H 0.980922 1.032131 0.574569 0
M  V30 40 H -0.019168 3.196370 1.947805 0
M  V30 41 H 0.699030 1.770426 2.732494 0
M  V30 42 H -1.449891 0.814816 3.105021 0
M  V30 43 H -1.533157 2.578049 3.565842 0
M  V30 44 H -3.478903 2.189329 2.087070 0
M  V30 45 H -2.169949 2.921519 1.000462 0
M  V30 46 H -3.195093 0.802073 0.011847 0
M  V30 47 H -2.859059 0.003418 1.559077 0
M  V30 48 H -2.747961 -1.051160 -0.713171 0
M  V30 49 H -1.313500 -1.993692 -1.111750 0
M  V30 50 H -1.553468 -1.501222 -3.492850 0
M  V30 51 H -3.176126 -1.882457 -2.766166 0
M  V30 52 H -3.349794 0.051651 -4.189869 0
M  V30 53 H -3.591352 0.490345 -2.438569 0
M  V30 54 H -0.970701 0.611016 -4.011132 0
M  V30 55 H -1.975190 2.073125 -3.692962 0
M  V30 56 H -1.672183 2.118717 -1.461205 0
M  V30 57 H -0.067225 1.755527 -2.092605 0
M  V30 END ATOM
M  V30 BEGIN BOND
M  V30 1 1 1 2
M  V30 2 1 2 3
M  V30 3 1 3 4
M  V30 4 1 4 5
M  V30 5 1 3 6
M  V30 6 1 6 7
M  V30 7 1 7 8
M  V30 8 1 8 9
M  V30 9 2 9 10
M  V30 10 1 9 11
M  V30 11 1 11 12
M  V30 12 1 12 13
M  V30 13 1 13 14
M  V30 14 1 14 15
M  V30 15 1 15 16
M  V30 16 1 16 17
M  V30 17 1 11 18
M  V30 18 1 18 19
M  V30 19 1 19 20
M  V30 20 1 20 21
M  V30 21 1 21 22
M  V30 22 1 22 11
M  V30 23 1 17 12
M  V30 24 1 1 23
M  V30 25 1 1 24
M  V30 26 1 1 25
M  V30 27 1 2 26
M  V30 28 1 2 27
M  V30 29 1 4 28
M  V30 30 1 4 29
M  V30 31 1 5 30
M  V30 32 1 5 31
M  V30 33 1 5 32
M  V30 34 1 6 33
M  V30 35 1 6 34
M  V30 36 1 7 35
M  V30 37 1 7 36
M  V30 38 1 12 37
M  V30 39 1 13 38
M  V30 40 1 13 39
M  V30 41 1 14 40
M  V30 42 1 14 41
M  V30 43 1 15 42
M  V30 44 1 15 43
M  V30 45 1 16 44
M  V30 46 1 16 45
M  V30 47 1 17 46
M  V30 48 1 17 47
M  V30 49 1 18 48
M  V30 50 1 18 49
M  V30 51 1 19 50
M  V30 52 1 19 51
M  V30 53 1 20 52
M  V30 54 1 20 53
M  V30 55 1 21 54
M  V30 56 1 21 55
M  V30 57 1 22 56
M  V30 58 1 22 57
M  V30 END BOND
M  V30 END CTAB
M  END
>  <Dataset>  (282) 
OralDrugs

>  <Ligand_Instance>  (282) 
nan

>  <PDB_ID>  (282) 
nan

>  <Standardized_SMILES>  (282) 
CCN(CC)CCOC(=O)C1(C2CCCCC2)CCCCC1

>  <Name>  (282) 
Dicyclomine

>  <Pocket>  (282) 
nan

>  <ATP_Site>  (282) 
nan

>  <Peripheral>  (282) 
nan

>  <Num_H_Atoms_ProtBoundConf>  (282) 
nan

>  <Num_Resolved_Atoms>  (282) 
nan

>  <Num_Not_Resolved_Atoms>  (282) 
nan

$$$$
CHEMBL1201864
     RDKit          3D

  0  0  0  0  0  0  0  0  0  0999 V3000
M  V30 BEGIN CTAB
M  V30 COUNTS 48 51 0 0 0
M  V30 BEGIN ATOM
M  V30 1 C -0.996595 -2.422530 2.776707 0
M  V30 2 C -1.135596 -1.752609 1.452186 0 CFG=2
M  V30 3 C -0.283688 -2.455527 0.426435 0
M  V30 4 C 1.157884 -2.137286 0.622711 0
M  V30 5 C 1.435660 -0.666867 0.800595 0
M  V30 6 C 2.319094 -0.044794 0.036433 0
M  V30 7 C 3.152899 -0.556786 -1.046906 0
M  V30 8 C 2.856123 0.320045 -2.271881 0
M  V30 9 C 3.102121 1.729109 -1.920074 0
M  V30 10 O 3.542284 2.528378 -2.786431 0
M  V30 11 C 2.855442 2.255563 -0.588133 0
M  V30 12 C 2.479056 1.393514 0.346238 0
M  V30 13 C 2.204069 1.853433 1.754235 0
M  V30 14 C 0.925358 1.282678 2.302083 0
M  V30 15 C 0.601630 -0.100871 1.891340 0 CFG=1
M  V30 16 C -0.803080 -0.299322 1.420507 0 CFG=2
M  V30 17 C -1.888575 0.308625 2.228633 0
M  V30 18 C -3.107739 -0.364400 1.591213 0
M  V30 19 C -2.600443 -1.724119 1.097819 0 CFG=2
M  V30 20 O -3.325301 -2.690012 1.788433 0
M  V30 21 C -2.852252 -1.891890 -0.378024 0
M  V30 22 C -4.288739 -1.853580 -0.640614 0
M  V30 23 N -5.448548 -1.824719 -0.833009 0
M  V30 24 H 0.029608 -2.683030 3.079140 0
M  V30 25 H -1.535069 -1.917777 3.588996 0
M  V30 26 H -1.512887 -3.423022 2.677390 0
M  V30 27 H -0.607436 -2.287283 -0.617059 0
M  V30 28 H -0.406049 -3.539131 0.633705 0
M  V30 29 H 1.453454 -2.571015 1.624111 0
M  V30 30 H 1.808457 -2.621928 -0.095703 0
M  V30 31 H 2.969187 -1.578065 -1.375961 0
M  V30 32 H 4.250961 -0.384056 -0.849199 0
M  V30 33 H 3.487882 0.030319 -3.134609 0
M  V30 34 H 1.767188 0.205043 -2.470921 0
M  V30 35 H 2.974386 3.299441 -0.374785 0
M  V30 36 H 3.082770 1.521687 2.353947 0
M  V30 37 H 2.127749 2.959074 1.712481 0
M  V30 38 H 0.113498 2.019605 2.063917 0
M  V30 39 H 1.024926 1.376336 3.424768 0
M  V30 40 H 0.774236 -0.766682 2.788642 0
M  V30 41 H -0.887423 0.050422 0.388555 0
M  V30 42 H -1.946546 1.414664 2.105235 0
M  V30 43 H -1.842453 0.120085 3.306344 0
M  V30 44 H -3.412708 0.289683 0.733743 0
M  V30 45 H -3.963904 -0.440686 2.263639 0
M  V30 46 H -4.066301 -3.020557 1.201536 0
M  V30 47 H -2.299929 -1.166777 -0.988976 0
M  V30 48 H -2.540633 -2.939597 -0.614711 0
M  V30 END ATOM
M  V30 BEGIN BOND
M  V30 1 1 2 1 CFG=1
M  V30 2 1 2 3
M  V30 3 1 3 4
M  V30 4 1 4 5
M  V30 5 2 5 6
M  V30 6 1 6 7
M  V30 7 1 7 8
M  V30 8 1 8 9
M  V30 9 2 9 10
M  V30 10 1 9 11
M  V30 11 2 11 12
M  V30 12 1 12 13
M  V30 13 1 13 14
M  V30 14 1 14 15
M  V30 15 1 15 16
M  V30 16 1 16 17
M  V30 17 1 17 18
M  V30 18 1 18 19
M  V30 19 1 19 20 CFG=1
M  V30 20 1 19 21
M  V30 21 1 21 22
M  V30 22 3 22 23
M  V30 23 1 16 2
M  V30 24 1 19 2
M  V30 25 1 15 5
M  V30 26 1 12 6
M  V30 27 1 1 24
M  V30 28 1 1 25
M  V30 29 1 1 26
M  V30 30 1 3 27
M  V30 31 1 3 28
M  V30 32 1 4 29
M  V30 33 1 4 30
M  V30 34 1 7 31
M  V30 35 1 7 32
M  V30 36 1 8 33
M  V30 37 1 8 34
M  V30 38 1 11 35
M  V30 39 1 13 36
M  V30 40 1 13 37
M  V30 41 1 14 38
M  V30 42 1 14 39
M  V30 43 1 15 40 CFG=1
M  V30 44 1 16 41 CFG=3
M  V30 45 1 17 42
M  V30 46 1 17 43
M  V30 47 1 18 44
M  V30 48 1 18 45
M  V30 49 1 20 46
M  V30 50 1 21 47
M  V30 51 1 21 48
M  V30 END BOND
M  V30 END CTAB
M  END
>  <Dataset>  (283) 
OralDrugs

>  <Ligand_Instance>  (283) 
nan

>  <PDB_ID>  (283) 
nan

>  <Standardized_SMILES>  (283) 
C[C@]12CCC3=C4CCC(=O)C=C4CC[C@H]3[C@@H]1CC[C@@]2(O)CC#N

>  <Name>  (283) 
Dienogest

>  <Pocket>  (283) 
nan

>  <ATP_Site>  (283) 
nan

>  <Peripheral>  (283) 
nan

>  <Num_H_Atoms_ProtBoundConf>  (283) 
nan

>  <Num_Resolved_Atoms>  (283) 
nan

>  <Num_Not_Resolved_Atoms>  (283) 
nan

$$$$
CHEMBL684
     RDKit          3D

  0  0  0  0  0  0  0  0  0  0999 V3000
M  V30 BEGIN CTAB
M  V30 COUNTS 35 35 0 0 0
M  V30 BEGIN ATOM
M  V30 1 C -1.442514 -0.769215 3.743157 0
M  V30 2 C 0.010977 -1.038028 3.461107 0
M  V30 3 N 0.263237 -1.269895 2.056319 0
M  V30 4 C 0.171608 -2.670185 1.619400 0
M  V30 5 C 1.517382 -3.314654 1.744010 0
M  V30 6 C 0.562268 -0.116817 1.290906 0
M  V30 7 O 0.483759 0.772202 2.184444 0
M  V30 8 N 0.879483 0.219299 -0.035959 0
M  V30 9 C 1.052594 -0.519498 -1.275805 0
M  V30 10 C 0.085637 -0.109006 -2.348780 0
M  V30 11 N -0.641770 1.091770 -2.014853 0
M  V30 12 C -1.682920 0.873576 -1.058038 0
M  V30 13 C 0.303265 2.068044 -1.564564 0
M  V30 14 C 1.107487 1.588487 -0.370019 0
M  V30 15 H -1.615770 -1.011781 4.819982 0
M  V30 16 H -1.680625 0.303912 3.535656 0
M  V30 17 H -2.068860 -1.398041 3.087259 0
M  V30 18 H 0.308012 -1.920520 4.074388 0
M  V30 19 H 0.609177 -0.195978 3.812345 0
M  V30 20 H -0.592231 -3.181396 2.273585 0
M  V30 21 H -0.232852 -2.729338 0.597417 0
M  V30 22 H 2.140297 -2.827078 2.517579 0
M  V30 23 H 2.049926 -3.238692 0.775237 0
M  V30 24 H 1.406312 -4.401025 1.966582 0
M  V30 25 H 0.967913 -1.625104 -1.134050 0
M  V30 26 H 2.120771 -0.377878 -1.595546 0
M  V30 27 H 0.674471 0.141042 -3.270263 0
M  V30 28 H -0.586707 -0.944681 -2.618450 0
M  V30 29 H -1.616422 1.536514 -0.172437 0
M  V30 30 H -1.729643 -0.180039 -0.690092 0
M  V30 31 H -2.678488 1.083475 -1.522222 0
M  V30 32 H 0.932927 2.408190 -2.408667 0
M  V30 33 H -0.285043 2.968161 -1.263813 0
M  V30 34 H 0.919092 2.225673 0.491838 0
M  V30 35 H 2.181412 1.687051 -0.678360 0
M  V30 END ATOM
M  V30 BEGIN BOND
M  V30 1 1 1 2
M  V30 2 1 2 3
M  V30 3 1 3 4
M  V30 4 1 4 5
M  V30 5 1 3 6
M  V30 6 2 6 7
M  V30 7 1 6 8
M  V30 8 1 8 9
M  V30 9 1 9 10
M  V30 10 1 10 11
M  V30 11 1 11 12
M  V30 12 1 11 13
M  V30 13 1 13 14
M  V30 14 1 14 8
M  V30 15 1 1 15
M  V30 16 1 1 16
M  V30 17 1 1 17
M  V30 18 1 2 18
M  V30 19 1 2 19
M  V30 20 1 4 20
M  V30 21 1 4 21
M  V30 22 1 5 22
M  V30 23 1 5 23
M  V30 24 1 5 24
M  V30 25 1 9 25
M  V30 26 1 9 26
M  V30 27 1 10 27
M  V30 28 1 10 28
M  V30 29 1 12 29
M  V30 30 1 12 30
M  V30 31 1 12 31
M  V30 32 1 13 32
M  V30 33 1 13 33
M  V30 34 1 14 34
M  V30 35 1 14 35
M  V30 END BOND
M  V30 END CTAB
M  END
>  <Dataset>  (284) 
OralDrugs

>  <Ligand_Instance>  (284) 
nan

>  <PDB_ID>  (284) 
nan

>  <Standardized_SMILES>  (284) 
CCN(CC)C(=O)N1CCN(C)CC1

>  <Name>  (284) 
Diethylcarbamazine

>  <Pocket>  (284) 
nan

>  <ATP_Site>  (284) 
nan

>  <Peripheral>  (284) 
nan

>  <Num_H_Atoms_ProtBoundConf>  (284) 
nan

>  <Num_Resolved_Atoms>  (284) 
nan

>  <Num_Not_Resolved_Atoms>  (284) 
nan

$$$$
CHEMBL1194666
     RDKit          3D

  0  0  0  0  0  0  0  0  0  0999 V3000
M  V30 BEGIN CTAB
M  V30 COUNTS 34 34 0 0 0
M  V30 BEGIN ATOM
M  V30 1 C -2.276163 -2.553332 1.498444 0
M  V30 2 C -0.930122 -3.151549 1.284406 0
M  V30 3 N 0.177177 -2.226385 1.543520 0
M  V30 4 C 0.319067 -1.869313 2.887030 0
M  V30 5 C 1.679514 -1.321640 3.244908 0
M  V30 6 C 0.235595 -1.235392 0.516289 0
M  V30 7 C 1.291957 -1.662264 -0.474031 0
M  V30 8 C 0.279995 0.169712 0.884425 0
M  V30 9 O 0.449434 0.815441 1.971987 0
M  V30 10 C 0.085031 1.129821 -0.216310 0
M  V30 11 C -0.159847 0.743614 -1.503331 0
M  V30 12 C -0.352941 1.574986 -2.575207 0
M  V30 13 C -0.309358 2.950749 -2.412322 0
M  V30 14 C -0.062062 3.388372 -1.107985 0
M  V30 15 C 0.123050 2.508004 -0.077402 0
M  V30 16 H -2.916547 -2.557631 0.569411 0
M  V30 17 H -2.833623 -3.046000 2.326341 0
M  V30 18 H -2.176284 -1.507465 1.776487 0
M  V30 19 H -0.784915 -3.513338 0.248823 0
M  V30 20 H -0.805344 -3.995487 1.964127 0
M  V30 21 H -0.446848 -1.099337 3.181428 0
M  V30 22 H 0.091254 -2.754275 3.539057 0
M  V30 23 H 2.300726 -1.098570 2.368463 0
M  V30 24 H 1.568782 -0.473382 3.942369 0
M  V30 25 H 2.235825 -2.153135 3.807360 0
M  V30 26 H -0.740424 -1.312373 -0.118265 0
M  V30 27 H 0.926588 -2.289196 -1.294367 0
M  V30 28 H 2.080929 -2.296018 0.026797 0
M  V30 29 H 1.863557 -0.791363 -0.863199 0
M  V30 30 H -0.236720 -0.286801 -1.802997 0
M  V30 31 H -0.542713 1.268729 -3.584251 0
M  V30 32 H -0.436589 3.721043 -3.126758 0
M  V30 33 H -0.012795 4.459754 -0.888930 0
M  V30 34 H 0.313208 2.920538 0.921926 0
M  V30 END ATOM
M  V30 BEGIN BOND
M  V30 1 1 1 2
M  V30 2 1 2 3
M  V30 3 1 3 4
M  V30 4 1 4 5
M  V30 5 1 3 6
M  V30 6 1 6 7
M  V30 7 1 6 8
M  V30 8 2 8 9
M  V30 9 1 8 10
M  V30 10 2 10 11
M  V30 11 1 11 12
M  V30 12 2 12 13
M  V30 13 1 13 14
M  V30 14 2 14 15
M  V30 15 1 15 10
M  V30 16 1 1 16
M  V30 17 1 1 17
M  V30 18 1 1 18
M  V30 19 1 2 19
M  V30 20 1 2 20
M  V30 21 1 4 21
M  V30 22 1 4 22
M  V30 23 1 5 23
M  V30 24 1 5 24
M  V30 25 1 5 25
M  V30 26 1 6 26
M  V30 27 1 7 27
M  V30 28 1 7 28
M  V30 29 1 7 29
M  V30 30 1 11 30
M  V30 31 1 12 31
M  V30 32 1 13 32
M  V30 33 1 14 33
M  V30 34 1 15 34
M  V30 END BOND
M  V30 END CTAB
M  END
>  <Dataset>  (285) 
OralDrugs

>  <Ligand_Instance>  (285) 
nan

>  <PDB_ID>  (285) 
nan

>  <Standardized_SMILES>  (285) 
CCN(CC)C(C)C(=O)c1ccccc1

>  <Name>  (285) 
Diethylpropion

>  <Pocket>  (285) 
nan

>  <ATP_Site>  (285) 
nan

>  <Peripheral>  (285) 
nan

>  <Num_H_Atoms_ProtBoundConf>  (285) 
nan

>  <Num_Resolved_Atoms>  (285) 
nan

>  <Num_Not_Resolved_Atoms>  (285) 
nan

$$$$
CHEMBL411
     RDKit          3D

  0  0  0  0  0  0  0  0  0  0999 V3000
M  V30 BEGIN CTAB
M  V30 COUNTS 40 41 0 0 0
M  V30 BEGIN ATOM
M  V30 1 C -1.988887 -1.693224 1.920908 0
M  V30 2 C -1.664906 -0.548705 0.977471 0
M  V30 3 C -0.237614 -0.178381 1.139600 0
M  V30 4 C 0.598986 -0.322938 0.134026 0
M  V30 5 C 2.026127 0.061472 0.305644 0
M  V30 6 C 2.940759 -1.130937 0.121668 0
M  V30 7 C 0.346441 -0.882274 -1.174750 0
M  V30 8 C -0.286597 -2.075896 -1.433935 0
M  V30 9 C -0.516634 -2.550521 -2.721041 0
M  V30 10 C -0.108177 -1.824797 -3.816816 0
M  V30 11 O -0.336487 -2.297877 -5.091440 0
M  V30 12 C 0.532404 -0.619033 -3.587053 0
M  V30 13 C 0.743107 -0.179360 -2.292047 0
M  V30 14 C 0.092231 0.286826 2.473116 0
M  V30 15 C 1.133422 -0.105652 3.246167 0
M  V30 16 C 1.415314 0.387310 4.503085 0
M  V30 17 C 0.588355 1.357823 5.042984 0
M  V30 18 O 0.848866 1.871093 6.305145 0
M  V30 19 C -0.485753 1.782325 4.281354 0
M  V30 20 C -0.738655 1.268164 3.027051 0
M  V30 21 H -1.247407 -1.779304 2.754318 0
M  V30 22 H -2.007254 -2.666583 1.408631 0
M  V30 23 H -3.021818 -1.591262 2.366530 0
M  V30 24 H -1.879315 -0.854127 -0.038225 0
M  V30 25 H -2.332246 0.287009 1.320882 0
M  V30 26 H 2.301691 0.750014 -0.561374 0
M  V30 27 H 2.235164 0.664998 1.187594 0
M  V30 28 H 3.197574 -1.254171 -0.959215 0
M  V30 29 H 3.889589 -1.019110 0.648060 0
M  V30 30 H 2.432420 -2.068128 0.456421 0
M  V30 31 H -0.616661 -2.697860 -0.640002 0
M  V30 32 H -1.026267 -3.509748 -2.876403 0
M  V30 33 H -0.640664 -1.650143 -5.787227 0
M  V30 34 H 0.830957 -0.094031 -4.482618 0
M  V30 35 H 1.249911 0.772518 -2.287047 0
M  V30 36 H 1.792894 -0.857143 2.890387 0
M  V30 37 H 2.265171 0.028652 5.067271 0
M  V30 38 H 0.575269 2.832765 6.532355 0
M  V30 39 H -1.093146 2.544995 4.767050 0
M  V30 40 H -1.604688 1.706794 2.577302 0
M  V30 END ATOM
M  V30 BEGIN BOND
M  V30 1 1 1 2
M  V30 2 1 2 3
M  V30 3 2 3 4
M  V30 4 1 4 5
M  V30 5 1 5 6
M  V30 6 1 4 7
M  V30 7 2 7 8
M  V30 8 1 8 9
M  V30 9 2 9 10
M  V30 10 1 10 11
M  V30 11 1 10 12
M  V30 12 2 12 13
M  V30 13 1 3 14
M  V30 14 2 14 15
M  V30 15 1 15 16
M  V30 16 2 16 17
M  V30 17 1 17 18
M  V30 18 1 17 19
M  V30 19 2 19 20
M  V30 20 1 13 7
M  V30 21 1 20 14
M  V30 22 1 1 21
M  V30 23 1 1 22
M  V30 24 1 1 23
M  V30 25 1 2 24
M  V30 26 1 2 25
M  V30 27 1 5 26
M  V30 28 1 5 27
M  V30 29 1 6 28
M  V30 30 1 6 29
M  V30 31 1 6 30
M  V30 32 1 8 31
M  V30 33 1 9 32
M  V30 34 1 11 33
M  V30 35 1 12 34
M  V30 36 1 13 35
M  V30 37 1 15 36
M  V30 38 1 16 37
M  V30 39 1 18 38
M  V30 40 1 19 39
M  V30 41 1 20 40
M  V30 END BOND
M  V30 END CTAB
M  END
>  <Dataset>  (286) 
OralDrugs

>  <Ligand_Instance>  (286) 
nan

>  <PDB_ID>  (286) 
nan

>  <Standardized_SMILES>  (286) 
CC/C(=C(/CC)c1ccc(O)cc1)c1ccc(O)cc1

>  <Name>  (286) 
Diethylstilbestrol

>  <Pocket>  (286) 
nan

>  <ATP_Site>  (286) 
nan

>  <Peripheral>  (286) 
nan

>  <Num_H_Atoms_ProtBoundConf>  (286) 
nan

>  <Num_Resolved_Atoms>  (286) 
nan

>  <Num_Not_Resolved_Atoms>  (286) 
nan

$$$$
CHEMBL1201321
     RDKit          3D

  0  0  0  0  0  0  0  0  0  0999 V3000
M  V30 BEGIN CTAB
M  V30 COUNTS 60 63 0 0 0
M  V30 BEGIN ATOM
M  V30 1 N -2.112411 -2.466056 4.195967 0
M  V30 2 C -1.787365 -2.554983 3.070398 0
M  V30 3 C -1.354067 -2.680991 1.650572 0
M  V30 4 C -0.480220 -1.503902 1.406608 0
M  V30 5 C 0.132096 -1.379034 0.055828 0
M  V30 6 N 0.948627 -0.188668 -0.091484 0
M  V30 7 C 2.157212 -0.200847 0.685378 0
M  V30 8 C 2.734678 1.191016 0.638716 0
M  V30 9 C 2.301978 1.991699 -0.566376 0
M  V30 10 C 3.442129 2.910201 -0.866060 0
M  V30 11 O 4.029395 2.977359 -1.974840 0
M  V30 12 O 4.453056 3.833421 -0.876300 0
M  V30 13 C 1.156286 2.844313 -0.192691 0
M  V30 14 C 1.382914 3.876044 0.694134 0
M  V30 15 C 0.345734 4.716238 1.087931 0
M  V30 16 C -0.943879 4.555350 0.612559 0
M  V30 17 C -1.180573 3.518710 -0.281187 0
M  V30 18 C -0.126570 2.713896 -0.642485 0
M  V30 19 C 2.074304 1.158350 -1.799920 0
M  V30 20 C 1.363062 -0.136891 -1.490130 0
M  V30 21 C -2.638379 -2.675559 0.897520 0
M  V30 22 C -3.293461 -3.893033 1.115388 0
M  V30 23 C -4.538452 -4.143336 0.526569 0
M  V30 24 C -5.145387 -3.201821 -0.277349 0
M  V30 25 C -4.476809 -2.011209 -0.473972 0
M  V30 26 C -3.252187 -1.741273 0.094101 0
M  V30 27 C -0.637245 -3.974537 1.552849 0
M  V30 28 C -0.318788 -4.480581 0.312338 0
M  V30 29 C 0.348968 -5.668615 0.109724 0
M  V30 30 C 0.717733 -6.391050 1.248757 0
M  V30 31 C 0.414983 -5.915763 2.529637 0
M  V30 32 C -0.260936 -4.709642 2.661182 0
M  V30 33 H -1.130052 -0.590252 1.545424 0
M  V30 34 H 0.258862 -1.460827 2.208320 0
M  V30 35 H -0.536284 -1.403923 -0.799296 0
M  V30 36 H 0.899250 -2.222601 -0.000493 0
M  V30 37 H 2.907993 -0.926807 0.310202 0
M  V30 38 H 1.962637 -0.485755 1.731618 0
M  V30 39 H 2.412329 1.720829 1.559483 0
M  V30 40 H 3.833610 1.111917 0.704941 0
M  V30 41 H 4.556550 4.429769 -0.046329 0
M  V30 42 H 2.339939 4.108057 1.137585 0
M  V30 43 H 0.420382 5.554972 1.780624 0
M  V30 44 H -1.784350 5.175125 0.885248 0
M  V30 45 H -2.174870 3.358928 -0.675305 0
M  V30 46 H -0.354058 1.928510 -1.334430 0
M  V30 47 H 3.069004 0.897000 -2.224788 0
M  V30 48 H 1.558895 1.787747 -2.539267 0
M  V30 49 H 0.450428 -0.293742 -2.091170 0
M  V30 50 H 2.013311 -1.022199 -1.656667 0
M  V30 51 H -2.969713 -4.748470 1.714823 0
M  V30 52 H -5.097318 -5.063699 0.652933 0
M  V30 53 H -6.104973 -3.300131 -0.776339 0
M  V30 54 H -4.853524 -1.210205 -1.076506 0
M  V30 55 H -2.661074 -0.848918 0.011049 0
M  V30 56 H -0.570661 -3.986987 -0.639936 0
M  V30 57 H 0.605503 -6.076854 -0.855528 0
M  V30 58 H 1.240811 -7.323917 1.101170 0
M  V30 59 H 0.707373 -6.485401 3.383057 0
M  V30 60 H -0.499750 -4.335935 3.641085 0
M  V30 END ATOM
M  V30 BEGIN BOND
M  V30 1 3 1 2
M  V30 2 1 2 3
M  V30 3 1 3 4
M  V30 4 1 4 5
M  V30 5 1 5 6
M  V30 6 1 6 7
M  V30 7 1 7 8
M  V30 8 1 8 9
M  V30 9 1 9 10
M  V30 10 2 10 11
M  V30 11 1 10 12
M  V30 12 1 9 13
M  V30 13 2 13 14
M  V30 14 1 14 15
M  V30 15 2 15 16
M  V30 16 1 16 17
M  V30 17 2 17 18
M  V30 18 1 9 19
M  V30 19 1 19 20
M  V30 20 1 3 21
M  V30 21 2 21 22
M  V30 22 1 22 23
M  V30 23 2 23 24
M  V30 24 1 24 25
M  V30 25 2 25 26
M  V30 26 1 3 27
M  V30 27 2 27 28
M  V30 28 1 28 29
M  V30 29 2 29 30
M  V30 30 1 30 31
M  V30 31 2 31 32
M  V30 32 1 20 6
M  V30 33 1 26 21
M  V30 34 1 32 27
M  V30 35 1 18 13
M  V30 36 1 4 33
M  V30 37 1 4 34
M  V30 38 1 5 35
M  V30 39 1 5 36
M  V30 40 1 7 37
M  V30 41 1 7 38
M  V30 42 1 8 39
M  V30 43 1 8 40
M  V30 44 1 12 41
M  V30 45 1 14 42
M  V30 46 1 15 43
M  V30 47 1 16 44
M  V30 48 1 17 45
M  V30 49 1 18 46
M  V30 50 1 19 47
M  V30 51 1 19 48
M  V30 52 1 20 49
M  V30 53 1 20 50
M  V30 54 1 22 51
M  V30 55 1 23 52
M  V30 56 1 24 53
M  V30 57 1 25 54
M  V30 58 1 26 55
M  V30 59 1 28 56
M  V30 60 1 29 57
M  V30 61 1 30 58
M  V30 62 1 31 59
M  V30 63 1 32 60
M  V30 END BOND
M  V30 END CTAB
M  END
>  <Dataset>  (287) 
OralDrugs

>  <Ligand_Instance>  (287) 
nan

>  <PDB_ID>  (287) 
nan

>  <Standardized_SMILES>  (287) 
N#CC(CCN1CCC(C(=O)O)(c2ccccc2)CC1)(c1ccccc1)c1ccccc1

>  <Name>  (287) 
Difenoxin

>  <Pocket>  (287) 
nan

>  <ATP_Site>  (287) 
nan

>  <Peripheral>  (287) 
nan

>  <Num_H_Atoms_ProtBoundConf>  (287) 
nan

>  <Num_Resolved_Atoms>  (287) 
nan

>  <Num_Not_Resolved_Atoms>  (287) 
nan

$$$$
CHEMBL898
     RDKit          3D

  0  0  0  0  0  0  0  0  0  0999 V3000
M  V30 BEGIN CTAB
M  V30 COUNTS 26 27 0 0 0
M  V30 BEGIN ATOM
M  V30 1 O 0.557074 -2.207193 4.142401 0
M  V30 2 C 0.164854 -2.890637 3.158501 0
M  V30 3 O -0.065282 -4.231823 3.383952 0
M  V30 4 C -0.048816 -2.316569 1.814458 0
M  V30 5 C 0.204824 -0.966721 1.675434 0
M  V30 6 C 0.009531 -0.416897 0.425432 0
M  V30 7 C 0.270660 1.008413 0.251900 0
M  V30 8 C -0.112527 2.045786 1.077510 0
M  V30 9 C 0.224466 3.345476 0.755089 0
M  V30 10 C 0.954844 3.589325 -0.413248 0
M  V30 11 F 1.282698 4.887686 -0.720837 0
M  V30 12 C 1.349574 2.554753 -1.257508 0
M  V30 13 C 1.000150 1.263726 -0.912865 0
M  V30 14 F 1.427480 0.323144 -1.794152 0
M  V30 15 C -0.425286 -1.188514 -0.653416 0
M  V30 16 C -0.669440 -2.543703 -0.471926 0
M  V30 17 C -0.482649 -3.131942 0.776917 0
M  V30 18 O -0.706927 -4.475191 1.027686 0
M  V30 19 H -0.144292 -4.657304 4.297846 0
M  V30 20 H 0.542803 -0.360772 2.508751 0
M  V30 21 H -0.670643 1.741380 1.948723 0
M  V30 22 H -0.088278 4.133227 1.418187 0
M  V30 23 H 1.912698 2.801092 -2.147657 0
M  V30 24 H -0.581263 -0.774525 -1.630377 0
M  V30 25 H -1.008920 -3.207200 -1.262116 0
M  V30 26 H -1.121376 -5.061945 0.319458 0
M  V30 END ATOM
M  V30 BEGIN BOND
M  V30 1 2 1 2
M  V30 2 1 2 3
M  V30 3 1 2 4
M  V30 4 2 4 5
M  V30 5 1 5 6
M  V30 6 1 6 7
M  V30 7 2 7 8
M  V30 8 1 8 9
M  V30 9 2 9 10
M  V30 10 1 10 11
M  V30 11 1 10 12
M  V30 12 2 12 13
M  V30 13 1 13 14
M  V30 14 2 6 15
M  V30 15 1 15 16
M  V30 16 2 16 17
M  V30 17 1 17 18
M  V30 18 1 17 4
M  V30 19 1 13 7
M  V30 20 1 3 19
M  V30 21 1 5 20
M  V30 22 1 8 21
M  V30 23 1 9 22
M  V30 24 1 12 23
M  V30 25 1 15 24
M  V30 26 1 16 25
M  V30 27 1 18 26
M  V30 END BOND
M  V30 END CTAB
M  END
>  <Dataset>  (288) 
OralDrugs

>  <Ligand_Instance>  (288) 
nan

>  <PDB_ID>  (288) 
nan

>  <Standardized_SMILES>  (288) 
O=C(O)c1cc(-c2ccc(F)cc2F)ccc1O

>  <Name>  (288) 
Diflunisal

>  <Pocket>  (288) 
nan

>  <ATP_Site>  (288) 
nan

>  <Peripheral>  (288) 
nan

>  <Num_H_Atoms_ProtBoundConf>  (288) 
nan

>  <Num_Resolved_Atoms>  (288) 
nan

>  <Num_Not_Resolved_Atoms>  (288) 
nan

$$$$
CHEMBL1751
     RDKit          3D

  0  0  0  0  0  0  0  0  0  0999 V3000
M  V30 BEGIN CTAB
M  V30 COUNTS 119 126 0 0 0
M  V30 BEGIN ATOM
M  V30 1 C -2.218396 -4.735998 -1.533142 0
M  V30 2 C -2.521181 -4.991663 -0.090647 0 CFG=1
M  V30 3 O -3.901412 -4.883769 0.201168 0
M  V30 4 C -3.960245 -4.465052 1.532540 0 CFG=1
M  V30 5 O -5.265794 -4.214022 1.936715 0
M  V30 6 C -5.492551 -2.870569 2.193944 0 CFG=1
M  V30 7 C -6.669828 -2.350747 1.354074 0 CFG=1
M  V30 8 O -7.613673 -3.375869 1.375499 0
M  V30 9 C -7.285733 -1.137618 1.980126 0
M  V30 10 C -6.400921 -0.523614 3.042920 0 CFG=2
M  V30 11 O -5.262376 -0.080725 2.424610 0
M  V30 12 C -4.999061 1.274666 2.554794 0 CFG=1
M  V30 13 C -3.710304 1.533301 3.308275 0 CFG=1
M  V30 14 O -3.741639 0.986488 4.587710 0
M  V30 15 C -2.502307 1.097909 2.519987 0
M  V30 16 C -2.773737 1.241600 1.043821 0 CFG=2
M  V30 17 O -1.599997 1.378883 0.366168 0
M  V30 18 C -1.338184 0.414344 -0.575608 0 CFG=1
M  V30 19 C -1.293680 1.061477 -1.936911 0
M  V30 20 C -0.000572 0.906186 -2.660541 0
M  V30 21 C 1.160242 1.189316 -1.726037 0 CFG=1
M  V30 22 C 1.048198 2.665424 -1.341701 0
M  V30 23 C 1.188445 0.302251 -0.522888 0 CFG=2
M  V30 24 C 2.229330 -0.814443 -0.666450 0
M  V30 25 C 3.619377 -0.291579 -0.730564 0
M  V30 26 C 3.574909 1.067984 -1.422092 0 CFG=2
M  V30 27 C 2.482506 1.029216 -2.426834 0 CFG=2
M  V30 28 C 2.627759 2.012197 -3.546456 0
M  V30 29 C 4.022638 2.090988 -4.084882 0 CFG=1
M  V30 30 O 4.057161 3.200422 -4.957541 0
M  V30 31 C 5.042048 2.378130 -3.010384 0 CFG=2
M  V30 32 C 4.818637 3.778345 -2.488262 0
M  V30 33 C 6.441504 2.155431 -3.542603 0 CFG=1
M  V30 34 C 7.482032 2.522030 -2.561880 0
M  V30 35 C 8.225060 1.547203 -2.013006 0
M  V30 36 C 9.182726 2.133669 -1.083313 0
M  V30 37 O 10.097859 1.725317 -0.310726 0
M  V30 38 O 9.004073 3.500359 -1.080158 0
M  V30 39 C 7.958236 3.783193 -1.987406 0
M  V30 40 C 6.417643 0.659581 -3.781078 0
M  V30 41 C 5.539816 0.107506 -2.682142 0
M  V30 42 C 4.947329 1.311315 -1.967310 0 CFG=2
M  V30 43 O 5.734074 1.706332 -0.867677 0
M  V30 44 C -0.116585 -0.407091 -0.382912 0
M  V30 45 O -3.636490 2.312311 0.858913 0
M  V30 46 C -4.930241 2.026916 1.265040 0 CFG=2
M  V30 47 C -5.710665 3.314058 1.415063 0
M  V30 48 O -6.032995 -1.423813 4.038840 0
M  V30 49 C -5.940569 -2.729313 3.627405 0 CFG=2
M  V30 50 C -4.999493 -3.450327 4.565289 0
M  V30 51 C -3.206157 -5.426400 2.378805 0
M  V30 52 C -2.932818 -6.697097 1.585115 0 CFG=2
M  V30 53 O -2.229386 -7.602458 2.366699 0
M  V30 54 C -2.100857 -6.378420 0.352273 0 CFG=2
M  V30 55 O -0.765341 -6.382334 0.743236 0
M  V30 56 H -1.768447 -5.673205 -1.940395 0
M  V30 57 H -3.102755 -4.413056 -2.121104 0
M  V30 58 H -1.425079 -3.971219 -1.613645 0
M  V30 59 H -1.956009 -4.287093 0.549139 0
M  V30 60 H -3.448279 -3.481364 1.548778 0
M  V30 61 H -4.594831 -2.276643 2.034709 0
M  V30 62 H -6.359412 -2.221936 0.310791 0
M  V30 63 H -7.529893 -3.980073 0.596003 0
M  V30 64 H -7.398535 -0.353007 1.195923 0
M  V30 65 H -8.300456 -1.339244 2.343810 0
M  V30 66 H -6.964331 0.280378 3.564641 0
M  V30 67 H -5.821336 1.694242 3.164287 0
M  V30 68 H -3.630477 2.632083 3.449621 0
M  V30 69 H -2.853107 1.183987 4.991670 0
M  V30 70 H -2.338498 0.008072 2.712196 0
M  V30 71 H -1.578851 1.609780 2.835312 0
M  V30 72 H -3.323578 0.344090 0.712514 0
M  V30 73 H -2.202212 -0.286637 -0.566137 0
M  V30 74 H -2.096051 0.679856 -2.613215 0
M  V30 75 H -1.500862 2.169620 -1.861787 0
M  V30 76 H 0.097251 -0.044080 -3.215772 0
M  V30 77 H 0.044683 1.712030 -3.439382 0
M  V30 78 H 0.639701 2.811630 -0.323502 0
M  V30 79 H 2.029282 3.179797 -1.334276 0
M  V30 80 H 0.396267 3.232047 -2.038264 0
M  V30 81 H 1.474829 0.921430 0.346504 0
M  V30 82 H 1.960978 -1.467802 -1.501293 0
M  V30 83 H 2.123472 -1.419090 0.267327 0
M  V30 84 H 4.231225 -1.027579 -1.295400 0
M  V30 85 H 4.037247 -0.171154 0.294124 0
M  V30 86 H 3.397258 1.800740 -0.597332 0
M  V30 87 H 2.468932 -0.002058 -2.867137 0
M  V30 88 H 2.002010 1.594099 -4.390638 0
M  V30 89 H 2.180788 3.006617 -3.359077 0
M  V30 90 H 4.237116 1.223332 -4.697968 0
M  V30 91 H 4.810784 3.041984 -5.586099 0
M  V30 92 H 3.796784 4.120795 -2.832964 0
M  V30 93 H 4.900723 3.791935 -1.400458 0
M  V30 94 H 5.511393 4.449465 -3.033030 0
M  V30 95 H 6.552549 2.703651 -4.502263 0
M  V30 96 H 8.342223 0.462451 -2.034651 0
M  V30 97 H 8.407922 4.437240 -2.766184 0
M  V30 98 H 7.199556 4.337088 -1.381602 0
M  V30 99 H 6.038590 0.403291 -4.812103 0
M  V30 100 H 7.448761 0.240583 -3.783695 0
M  V30 101 H 4.674398 -0.383331 -3.184342 0
M  V30 102 H 6.089892 -0.569767 -2.005394 0
M  V30 103 H 5.580435 1.104583 -0.090886 0
M  V30 104 H -0.128544 -1.156065 -1.230020 0
M  V30 105 H -0.159147 -1.070443 0.513787 0
M  V30 106 H -5.445385 1.417962 0.481968 0
M  V30 107 H -5.855351 3.566346 2.505650 0
M  V30 108 H -5.194853 4.168599 0.970114 0
M  V30 109 H -6.736896 3.227253 1.004808 0
M  V30 110 H -6.967293 -3.191382 3.713543 0
M  V30 111 H -5.143302 -2.982756 5.579111 0
M  V30 112 H -5.260214 -4.511656 4.699949 0
M  V30 113 H -3.959375 -3.271481 4.272442 0
M  V30 114 H -2.196261 -4.999042 2.596284 0
M  V30 115 H -3.673634 -5.695811 3.341057 0
M  V30 116 H -3.902840 -7.102893 1.226271 0
M  V30 117 H -1.735421 -8.269435 1.829549 0
M  V30 118 H -2.250866 -7.105196 -0.451135 0
M  V30 119 H -0.235918 -6.740505 0.003310 0
M  V30 END ATOM
M  V30 BEGIN BOND
M  V30 1 1 1 2
M  V30 2 1 2 3
M  V30 3 1 3 4
M  V30 4 1 4 5
M  V30 5 1 5 6
M  V30 6 1 6 7
M  V30 7 1 7 8
M  V30 8 1 7 9
M  V30 9 1 9 10
M  V30 10 1 10 11
M  V30 11 1 11 12
M  V30 12 1 12 13
M  V30 13 1 13 14
M  V30 14 1 13 15
M  V30 15 1 15 16
M  V30 16 1 16 17
M  V30 17 1 17 18
M  V30 18 1 18 19
M  V30 19 1 19 20
M  V30 20 1 20 21
M  V30 21 1 21 22 CFG=1
M  V30 22 1 21 23
M  V30 23 1 23 24
M  V30 24 1 24 25
M  V30 25 1 25 26
M  V30 26 1 26 27
M  V30 27 1 27 28
M  V30 28 1 28 29
M  V30 29 1 29 30
M  V30 30 1 29 31
M  V30 31 1 31 32 CFG=1
M  V30 32 1 31 33
M  V30 33 1 33 34
M  V30 34 2 34 35
M  V30 35 1 35 36
M  V30 36 2 36 37
M  V30 37 1 36 38
M  V30 38 1 38 39
M  V30 39 1 33 40
M  V30 40 1 40 41
M  V30 41 1 41 42
M  V30 42 1 42 43 CFG=1
M  V30 43 1 23 44
M  V30 44 1 16 45
M  V30 45 1 45 46
M  V30 46 1 46 47
M  V30 47 1 10 48
M  V30 48 1 48 49
M  V30 49 1 49 50
M  V30 50 1 4 51
M  V30 51 1 51 52
M  V30 52 1 52 53
M  V30 53 1 52 54
M  V30 54 1 54 55
M  V30 55 1 54 2
M  V30 56 1 49 6
M  V30 57 1 46 12
M  V30 58 1 44 18
M  V30 59 1 27 21
M  V30 60 1 42 31
M  V30 61 1 42 26
M  V30 62 1 39 34
M  V30 63 1 1 56
M  V30 64 1 1 57
M  V30 65 1 1 58
M  V30 66 1 2 59 CFG=1
M  V30 67 1 4 60 CFG=3
M  V30 68 1 6 61 CFG=1
M  V30 69 1 7 62 CFG=3
M  V30 70 1 8 63
M  V30 71 1 9 64
M  V30 72 1 9 65
M  V30 73 1 10 66 CFG=1
M  V30 74 1 12 67 CFG=1
M  V30 75 1 13 68 CFG=1
M  V30 76 1 14 69
M  V30 77 1 15 70
M  V30 78 1 15 71
M  V30 79 1 16 72 CFG=3
M  V30 80 1 18 73 CFG=3
M  V30 81 1 19 74
M  V30 82 1 19 75
M  V30 83 1 20 76
M  V30 84 1 20 77
M  V30 85 1 22 78
M  V30 86 1 22 79
M  V30 87 1 22 80
M  V30 88 1 23 81 CFG=1
M  V30 89 1 24 82
M  V30 90 1 24 83
M  V30 91 1 25 84
M  V30 92 1 25 85
M  V30 93 1 26 86 CFG=1
M  V30 94 1 27 87 CFG=3
M  V30 95 1 28 88
M  V30 96 1 28 89
M  V30 97 1 29 90 CFG=3
M  V30 98 1 30 91
M  V30 99 1 32 92
M  V30 100 1 32 93
M  V30 101 1 32 94
M  V30 102 1 33 95 CFG=3
M  V30 103 1 35 96
M  V30 104 1 39 97
M  V30 105 1 39 98
M  V30 106 1 40 99
M  V30 107 1 40 100
M  V30 108 1 41 101
M  V30 109 1 41 102
M  V30 110 1 43 103
M  V30 111 1 44 104
M  V30 112 1 44 105
M  V30 113 1 46 106 CFG=3
M  V30 114 1 47 107
M  V30 115 1 47 108
M  V30 116 1 47 109
M  V30 117 1 49 110 CFG=3
M  V30 118 1 50 111
M  V30 119 1 50 112
M  V30 120 1 50 113
M  V30 121 1 51 114
M  V30 122 1 51 115
M  V30 123 1 52 116 CFG=3
M  V30 124 1 53 117
M  V30 125 1 54 118 CFG=3
M  V30 126 1 55 119
M  V30 END BOND
M  V30 END CTAB
M  END
>  <Dataset>  (289) 
OralDrugs

>  <Ligand_Instance>  (289) 
nan

>  <PDB_ID>  (289) 
nan

>  <Standardized_SMILES>  (289) 
C[C@H]1O[C@@H](O[C@H]2[C@@H](O)C[C@H](O[C@H]3[C@@H](O)C[C@H](O[C@H]4CC[C@@]5(C)[C@H](CC[C@@H]6[C@@H]5C[C@@H](O)[C@]5(C)[C@@H](C7=CC(=O)OC7)CC[C@]65O)C4)O[C@@H]3C)O[C@@H]2C)C[C@H](O)[C@@H]1O

>  <Name>  (289) 
Digoxin

>  <Pocket>  (289) 
nan

>  <ATP_Site>  (289) 
nan

>  <Peripheral>  (289) 
nan

>  <Num_H_Atoms_ProtBoundConf>  (289) 
nan

>  <Num_Resolved_Atoms>  (289) 
nan

>  <Num_Not_Resolved_Atoms>  (289) 
nan

$$$$
CHEMBL1595
     RDKit          3D

  0  0  0  0  0  0  0  0  0  0999 V3000
M  V30 BEGIN CTAB
M  V30 COUNTS 45 49 0 0 0
M  V30 BEGIN ATOM
M  V30 1 C 3.688023 0.158784 -3.970137 0
M  V30 2 O 2.444977 0.611304 -3.465002 0
M  V30 3 C 2.020160 0.090379 -2.249690 0
M  V30 4 C 2.691041 -0.835353 -1.470502 0
M  V30 5 C 2.127823 -1.261061 -0.268147 0
M  V30 6 C 0.931218 -0.806712 0.189224 0
M  V30 7 C 0.316641 0.098114 -0.612202 0
M  V30 8 C 0.784205 0.591334 -1.826166 0
M  V30 9 O -0.220413 1.473443 -2.214968 0
M  V30 10 C -1.468931 1.036604 -1.649882 0 CFG=1
M  V30 11 C -1.936993 -0.182608 -2.389177 0 CFG=1
M  V30 12 O -0.903652 -1.105174 -2.571605 0
M  V30 13 C -2.981232 -0.913337 -1.539512 0
M  V30 14 C -2.211107 -1.494111 -0.365045 0
M  V30 15 C -1.778016 -0.325055 0.472568 0 CFG=1
M  V30 16 C -1.014980 -0.710556 1.707307 0 CFG=1
M  V30 17 C 0.347643 -1.270701 1.469982 0
M  V30 18 N -0.942883 0.466765 2.549094 0
M  V30 19 C -0.314988 0.190690 3.817709 0
M  V30 20 C -0.212034 1.543976 1.911976 0
M  V30 21 C -0.801394 1.919720 0.576439 0
M  V30 22 C -1.017649 0.703833 -0.254712 0 CFG=1
M  V30 23 H 4.472209 0.148449 -3.162345 0
M  V30 24 H 4.040023 0.901563 -4.728284 0
M  V30 25 H 3.647794 -0.806685 -4.482932 0
M  V30 26 H 3.639653 -1.179997 -1.857098 0
M  V30 27 H 2.718301 -1.992400 0.288851 0
M  V30 28 H -2.198737 1.842689 -1.721995 0
M  V30 29 H -2.416289 0.095387 -3.334784 0
M  V30 30 H -1.357913 -1.979916 -2.786582 0
M  V30 31 H -3.638914 -0.103265 -1.111352 0
M  V30 32 H -3.532827 -1.672331 -2.108298 0
M  V30 33 H -2.911895 -2.119945 0.239638 0
M  V30 34 H -1.335095 -2.086465 -0.736582 0
M  V30 35 H -2.723306 0.145534 0.838451 0
M  V30 36 H -1.650107 -1.449991 2.239921 0
M  V30 37 H 0.250176 -2.375741 1.384572 0
M  V30 38 H 1.008282 -1.019455 2.299218 0
M  V30 39 H 0.783642 0.321193 3.821525 0
M  V30 40 H -0.551965 -0.867729 4.099536 0
M  V30 41 H -0.802860 0.868885 4.575106 0
M  V30 42 H 0.875596 1.333252 1.817549 0
M  V30 43 H -0.302935 2.430192 2.573805 0
M  V30 44 H -0.054617 2.616644 0.094872 0
M  V30 45 H -1.764022 2.425236 0.739184 0
M  V30 END ATOM
M  V30 BEGIN BOND
M  V30 1 1 1 2
M  V30 2 1 2 3
M  V30 3 2 3 4
M  V30 4 1 4 5
M  V30 5 2 5 6
M  V30 6 1 6 7
M  V30 7 2 7 8
M  V30 8 1 8 9
M  V30 9 1 9 10
M  V30 10 1 10 11
M  V30 11 1 11 12
M  V30 12 1 11 13
M  V30 13 1 13 14
M  V30 14 1 14 15
M  V30 15 1 15 16
M  V30 16 1 16 17
M  V30 17 1 16 18
M  V30 18 1 18 19
M  V30 19 1 18 20
M  V30 20 1 20 21
M  V30 21 1 22 21 CFG=1
M  V30 22 1 8 3
M  V30 23 1 22 10
M  V30 24 1 17 6
M  V30 25 1 22 7
M  V30 26 1 22 15
M  V30 27 1 1 23
M  V30 28 1 1 24
M  V30 29 1 1 25
M  V30 30 1 4 26
M  V30 31 1 5 27
M  V30 32 1 10 28 CFG=1
M  V30 33 1 11 29 CFG=3
M  V30 34 1 12 30
M  V30 35 1 13 31
M  V30 36 1 13 32
M  V30 37 1 14 33
M  V30 38 1 14 34
M  V30 39 1 15 35 CFG=1
M  V30 40 1 16 36 CFG=1
M  V30 41 1 17 37
M  V30 42 1 17 38
M  V30 43 1 19 39
M  V30 44 1 19 40
M  V30 45 1 19 41
M  V30 46 1 20 42
M  V30 47 1 20 43
M  V30 48 1 21 44
M  V30 49 1 21 45
M  V30 END BOND
M  V30 END CTAB
M  END
>  <Dataset>  (290) 
OralDrugs

>  <Ligand_Instance>  (290) 
nan

>  <PDB_ID>  (290) 
nan

>  <Standardized_SMILES>  (290) 
COc1ccc2c3c1O[C@H]1[C@@H](O)CC[C@H]4[C@@H](C2)N(C)CC[C@@]341

>  <Name>  (290) 
Dihydrocodeine

>  <Pocket>  (290) 
nan

>  <ATP_Site>  (290) 
nan

>  <Peripheral>  (290) 
nan

>  <Num_H_Atoms_ProtBoundConf>  (290) 
nan

>  <Num_Resolved_Atoms>  (290) 
nan

>  <Num_Not_Resolved_Atoms>  (290) 
nan

$$$$
CHEMBL23
     RDKit          3D

  0  0  0  0  0  0  0  0  0  0999 V3000
M  V30 BEGIN CTAB
M  V30 COUNTS 55 57 0 0 0
M  V30 BEGIN ATOM
M  V30 1 C -3.840867 -0.451653 5.740696 0
M  V30 2 O -3.400663 0.147715 4.547672 0
M  V30 3 C -2.179211 -0.223483 4.004830 0
M  V30 4 C -1.787791 0.389911 2.834573 0
M  V30 5 C -0.586303 0.057815 2.255643 0
M  V30 6 C 0.293399 -0.867267 2.759273 0
M  V30 7 C 1.608201 -1.317908 2.237319 0 CFG=2
M  V30 8 S 2.775406 0.035706 2.006479 0
M  V30 9 C 2.438705 0.895322 0.498581 0
M  V30 10 C 3.163167 2.085394 0.630891 0
M  V30 11 C 3.190459 3.085638 -0.334142 0
M  V30 12 C 2.452073 2.887080 -1.498505 0
M  V30 13 C 1.746354 1.709617 -1.608804 0
M  V30 14 C 1.713083 0.712936 -0.659272 0
M  V30 15 N 0.919425 -0.427392 -0.957492 0
M  V30 16 C 0.330616 -0.407392 -2.271158 0
M  V30 17 C -1.019315 0.263122 -2.326572 0
M  V30 18 N -1.550962 0.250814 -3.672779 0
M  V30 19 C -2.848064 0.927045 -3.573474 0
M  V30 20 C -1.872704 -1.146487 -3.990715 0
M  V30 21 C 0.657620 -1.546889 -0.088536 0
M  V30 22 O -0.492585 -2.069031 -0.330108 0
M  V30 23 C 1.519568 -2.077174 0.942005 0 CFG=2
M  V30 24 O 1.093282 -3.398115 1.335194 0
M  V30 25 C 1.973579 -4.475795 1.236620 0
M  V30 26 C 1.480950 -5.804517 1.653892 0
M  V30 27 O 3.148635 -4.274188 0.797569 0
M  V30 28 C -0.165868 -1.443162 3.936858 0
M  V30 29 C -1.352368 -1.165492 4.577055 0
M  V30 30 H -3.056849 -0.496474 6.535598 0
M  V30 31 H -4.684061 0.115307 6.187662 0
M  V30 32 H -4.235327 -1.480935 5.585209 0
M  V30 33 H -2.393492 1.138595 2.335677 0
M  V30 34 H -0.287680 0.536235 1.353043 0
M  V30 35 H 2.074770 -2.031670 2.992083 0
M  V30 36 H 3.782824 2.376558 1.481743 0
M  V30 37 H 3.725321 4.000533 -0.273607 0
M  V30 38 H 2.426777 3.624129 -2.293454 0
M  V30 39 H 1.173530 1.570628 -2.511879 0
M  V30 40 H 0.992431 -0.260423 -3.119020 0
M  V30 41 H 0.039442 -1.500903 -2.468091 0
M  V30 42 H -1.080277 1.238413 -1.818688 0
M  V30 43 H -1.756219 -0.363130 -1.734946 0
M  V30 44 H -3.158675 1.276114 -4.566336 0
M  V30 45 H -2.772188 1.760915 -2.821755 0
M  V30 46 H -3.639455 0.230182 -3.198333 0
M  V30 47 H -2.887206 -1.228228 -4.469807 0
M  V30 48 H -1.088581 -1.643859 -4.574552 0
M  V30 49 H -1.987635 -1.733706 -3.042440 0
M  V30 50 H 2.592777 -2.178266 0.594811 0
M  V30 51 H 2.167086 -6.621561 1.403105 0
M  V30 52 H 0.470702 -5.947244 1.175833 0
M  V30 53 H 1.327434 -5.822756 2.732831 0
M  V30 54 H 0.437412 -2.196943 4.444743 0
M  V30 55 H -1.645599 -1.654614 5.494225 0
M  V30 END ATOM
M  V30 BEGIN BOND
M  V30 1 1 1 2
M  V30 2 1 2 3
M  V30 3 2 3 4
M  V30 4 1 4 5
M  V30 5 2 5 6
M  V30 6 1 6 7
M  V30 7 1 7 8
M  V30 8 1 8 9
M  V30 9 2 9 10
M  V30 10 1 10 11
M  V30 11 2 11 12
M  V30 12 1 12 13
M  V30 13 2 13 14
M  V30 14 1 14 15
M  V30 15 1 15 16
M  V30 16 1 16 17
M  V30 17 1 17 18
M  V30 18 1 18 19
M  V30 19 1 18 20
M  V30 20 1 15 21
M  V30 21 2 21 22
M  V30 22 1 21 23
M  V30 23 1 23 24
M  V30 24 1 24 25
M  V30 25 1 25 26
M  V30 26 2 25 27
M  V30 27 1 6 28
M  V30 28 2 28 29
M  V30 29 1 29 3
M  V30 30 1 23 7
M  V30 31 1 14 9
M  V30 32 1 1 30
M  V30 33 1 1 31
M  V30 34 1 1 32
M  V30 35 1 4 33
M  V30 36 1 5 34
M  V30 37 1 7 35 CFG=1
M  V30 38 1 10 36
M  V30 39 1 11 37
M  V30 40 1 12 38
M  V30 41 1 13 39
M  V30 42 1 16 40
M  V30 43 1 16 41
M  V30 44 1 17 42
M  V30 45 1 17 43
M  V30 46 1 19 44
M  V30 47 1 19 45
M  V30 48 1 19 46
M  V30 49 1 20 47
M  V30 50 1 20 48
M  V30 51 1 20 49
M  V30 52 1 23 50 CFG=3
M  V30 53 1 26 51
M  V30 54 1 26 52
M  V30 55 1 26 53
M  V30 56 1 28 54
M  V30 57 1 29 55
M  V30 END BOND
M  V30 END CTAB
M  END
>  <Dataset>  (291) 
OralDrugs

>  <Ligand_Instance>  (291) 
nan

>  <PDB_ID>  (291) 
nan

>  <Standardized_SMILES>  (291) 
COc1ccc([C@@H]2Sc3ccccc3N(CCN(C)C)C(=O)[C@@H]2OC(C)=O)cc1

>  <Name>  (291) 
Diltiazem

>  <Pocket>  (291) 
nan

>  <ATP_Site>  (291) 
nan

>  <Peripheral>  (291) 
nan

>  <Num_H_Atoms_ProtBoundConf>  (291) 
nan

>  <Num_Resolved_Atoms>  (291) 
nan

>  <Num_Not_Resolved_Atoms>  (291) 
nan

$$$$
CHEMBL1200406
     RDKit          3D

  0  0  0  0  0  0  0  0  0  0999 V3000
M  V30 BEGIN CTAB
M  V30 COUNTS 40 41 0 0 0
M  V30 BEGIN ATOM
M  V30 1 C -1.684654 -2.618256 2.267597 0
M  V30 2 N -0.728888 -3.482897 1.605428 0
M  V30 3 C -1.273756 -4.763912 1.253351 0
M  V30 4 C -0.070454 -2.790761 0.520837 0
M  V30 5 C 0.837075 -1.693421 1.027335 0
M  V30 6 O 1.363345 -1.079855 -0.065978 0
M  V30 7 C 2.184035 -0.122577 -0.093682 0
M  V30 8 C 1.143680 0.877239 -1.038876 0
M  V30 9 C 0.412154 0.123519 -1.949359 0
M  V30 10 C -0.451734 0.731723 -2.809988 0
M  V30 11 C -0.547397 2.092816 -2.709994 0
M  V30 12 C 0.187060 2.797183 -1.801106 0
M  V30 13 C 1.067013 2.254628 -0.923169 0
M  V30 14 C 1.544454 0.589566 1.376094 0
M  V30 15 C 2.501723 0.519137 2.375976 0
M  V30 16 C 2.180612 1.027201 3.584032 0
M  V30 17 C 0.929766 1.573965 3.730965 0
M  V30 18 C 0.033598 1.613486 2.711563 0
M  V30 19 C 0.259653 1.132218 1.465450 0
M  V30 20 H -1.442557 -2.279676 3.250362 0
M  V30 21 H -1.852982 -1.731525 1.562082 0
M  V30 22 H -2.632528 -3.174311 2.262926 0
M  V30 23 H -0.866069 -5.018046 0.251483 0
M  V30 24 H -2.381716 -4.606432 1.118826 0
M  V30 25 H -1.042826 -5.581713 1.936127 0
M  V30 26 H -0.830382 -2.465863 -0.192147 0
M  V30 27 H 0.577287 -3.545444 -0.024132 0
M  V30 28 H 1.730753 -2.193833 1.544654 0
M  V30 29 H 0.386178 -1.104737 1.810476 0
M  V30 30 H 2.843463 0.646681 -0.111297 0
M  V30 31 H 0.489414 -0.953918 -2.015693 0
M  V30 32 H -1.020587 0.156528 -3.516350 0
M  V30 33 H -1.204733 2.605472 -3.369441 0
M  V30 34 H 0.139014 3.867992 -1.701766 0
M  V30 35 H 1.708907 2.627007 -0.158753 0
M  V30 36 H 3.478552 0.059155 2.139254 0
M  V30 37 H 2.900632 0.985349 4.384147 0
M  V30 38 H 0.623638 1.980074 4.692650 0
M  V30 39 H -0.971534 2.031328 2.763825 0
M  V30 40 H -0.315731 1.066463 0.552120 0
M  V30 END ATOM
M  V30 BEGIN BOND
M  V30 1 1 1 2
M  V30 2 1 2 3
M  V30 3 1 2 4
M  V30 4 1 4 5
M  V30 5 1 5 6
M  V30 6 1 6 7
M  V30 7 1 7 8
M  V30 8 2 8 9
M  V30 9 1 9 10
M  V30 10 2 10 11
M  V30 11 1 11 12
M  V30 12 2 12 13
M  V30 13 1 7 14
M  V30 14 2 14 15
M  V30 15 1 15 16
M  V30 16 2 16 17
M  V30 17 1 17 18
M  V30 18 2 18 19
M  V30 19 1 13 8
M  V30 20 1 19 14
M  V30 21 1 1 20
M  V30 22 1 1 21
M  V30 23 1 1 22
M  V30 24 1 3 23
M  V30 25 1 3 24
M  V30 26 1 3 25
M  V30 27 1 4 26
M  V30 28 1 4 27
M  V30 29 1 5 28
M  V30 30 1 5 29
M  V30 31 1 7 30
M  V30 32 1 9 31
M  V30 33 1 10 32
M  V30 34 1 11 33
M  V30 35 1 12 34
M  V30 36 1 13 35
M  V30 37 1 15 36
M  V30 38 1 16 37
M  V30 39 1 17 38
M  V30 40 1 18 39
M  V30 41 1 19 40
M  V30 END BOND
M  V30 END CTAB
M  END
>  <Dataset>  (292) 
OralDrugs

>  <Ligand_Instance>  (292) 
nan

>  <PDB_ID>  (292) 
nan

>  <Standardized_SMILES>  (292) 
CN(C)CCOC(c1ccccc1)c1ccccc1

>  <Name>  (292) 
Dimenhydrinate

>  <Pocket>  (292) 
nan

>  <ATP_Site>  (292) 
nan

>  <Peripheral>  (292) 
nan

>  <Num_H_Atoms_ProtBoundConf>  (292) 
nan

>  <Num_Resolved_Atoms>  (292) 
nan

>  <Num_Not_Resolved_Atoms>  (292) 
nan

$$$$
CHEMBL2107333
     RDKit          3D

  0  0  0  0  0  0  0  0  0  0999 V3000
M  V30 BEGIN CTAB
M  V30 COUNTS 18 17 0 0 0
M  V30 BEGIN ATOM
M  V30 1 C -2.406175 0.296312 2.780737 0
M  V30 2 O -1.125509 0.234369 2.187615 0
M  V30 3 C 0.067488 0.333703 2.903173 0
M  V30 4 O 0.041344 0.488827 4.157578 0
M  V30 5 C 1.319258 0.248143 2.121565 0
M  V30 6 C 1.323973 0.085616 0.808915 0
M  V30 7 C 2.588556 0.007482 0.086379 0
M  V30 8 O 3.672976 0.095483 0.718286 0
M  V30 9 O 2.582521 -0.163255 -1.291711 0
M  V30 10 C 3.741456 -0.251559 -2.088659 0
M  V30 11 H -2.704632 -0.652781 3.271449 0
M  V30 12 H -3.116079 0.397015 1.909626 0
M  V30 13 H -2.523505 1.142788 3.490667 0
M  V30 14 H 2.227958 0.328093 2.701239 0
M  V30 15 H 0.385379 0.011402 0.277752 0
M  V30 16 H 4.418527 0.634744 -1.968288 0
M  V30 17 H 4.321128 -1.177993 -1.955211 0
M  V30 18 H 3.373313 -0.234996 -3.151656 0
M  V30 END ATOM
M  V30 BEGIN BOND
M  V30 1 1 1 2
M  V30 2 1 2 3
M  V30 3 2 3 4
M  V30 4 1 3 5
M  V30 5 2 5 6
M  V30 6 1 6 7
M  V30 7 2 7 8
M  V30 8 1 7 9
M  V30 9 1 9 10
M  V30 10 1 1 11
M  V30 11 1 1 12
M  V30 12 1 1 13
M  V30 13 1 5 14
M  V30 14 1 6 15
M  V30 15 1 10 16
M  V30 16 1 10 17
M  V30 17 1 10 18
M  V30 END BOND
M  V30 END CTAB
M  END
>  <Dataset>  (293) 
OralDrugs

>  <Ligand_Instance>  (293) 
nan

>  <PDB_ID>  (293) 
nan

>  <Standardized_SMILES>  (293) 
COC(=O)/C=C/C(=O)OC

>  <Name>  (293) 
Dimethyl Fumarate

>  <Pocket>  (293) 
nan

>  <ATP_Site>  (293) 
nan

>  <Peripheral>  (293) 
nan

>  <Num_H_Atoms_ProtBoundConf>  (293) 
nan

>  <Num_Resolved_Atoms>  (293) 
nan

>  <Num_Not_Resolved_Atoms>  (293) 
nan

$$$$
CHEMBL1201340
     RDKit          3D

  0  0  0  0  0  0  0  0  0  0999 V3000
M  V30 BEGIN CTAB
M  V30 COUNTS 45 47 0 0 0
M  V30 BEGIN ATOM
M  V30 1 C -2.063377 -3.295608 1.682140 0
M  V30 2 N -0.914785 -3.271371 0.795585 0 CHG=1 VAL=4
M  V30 3 C -0.978569 -4.514845 0.037217 0
M  V30 4 C 0.349624 -3.237800 1.462499 0
M  V30 5 C 0.890064 -1.895291 1.811266 0
M  V30 6 C 0.732147 -0.931713 0.687160 0
M  V30 7 C 0.959865 0.380451 0.683673 0
M  V30 8 C 0.766795 1.222911 -0.497714 0
M  V30 9 C -0.426789 1.206661 -1.228457 0
M  V30 10 C -0.699954 1.931487 -2.359469 0
M  V30 11 C 0.298219 2.765395 -2.831828 0
M  V30 12 C 1.525505 2.851026 -2.170718 0
M  V30 13 C 1.691333 2.079082 -1.046485 0
M  V30 14 C 1.334965 1.023143 1.935218 0
M  V30 15 C 2.402953 1.764604 2.377608 0
M  V30 16 C 2.543418 2.353255 3.604196 0
M  V30 17 C 1.501785 2.189048 4.503971 0
M  V30 18 C 0.378816 1.448553 4.132744 0
M  V30 19 C 0.297580 0.874146 2.865616 0
M  V30 20 C 0.276008 -1.660239 -0.536301 0
M  V30 21 C -1.084522 -2.206241 -0.170058 0
M  V30 22 H -1.968369 -4.073283 2.458366 0
M  V30 23 H -2.929466 -3.555829 1.003837 0
M  V30 24 H -2.327423 -2.301203 2.078013 0
M  V30 25 H -2.064359 -4.745176 -0.173237 0
M  V30 26 H -0.545447 -4.320578 -0.977559 0
M  V30 27 H -0.470256 -5.332010 0.565666 0
M  V30 28 H 0.218413 -3.814055 2.410392 0
M  V30 29 H 1.074032 -3.853654 0.873630 0
M  V30 30 H 2.021000 -2.043736 1.858950 0
M  V30 31 H 0.633764 -1.533207 2.795521 0
M  V30 32 H -1.261159 0.585992 -0.915099 0
M  V30 33 H -1.640801 1.880370 -2.883811 0
M  V30 34 H 0.126165 3.355706 -3.720168 0
M  V30 35 H 2.301584 3.505230 -2.548038 0
M  V30 36 H 2.654891 2.185357 -0.595280 0
M  V30 37 H 3.166917 1.832025 1.623638 0
M  V30 38 H 3.458637 2.891438 3.748641 0
M  V30 39 H 1.656036 2.673574 5.466211 0
M  V30 40 H -0.324571 1.425632 4.950646 0
M  V30 41 H -0.669541 0.377400 2.838867 0
M  V30 42 H 0.924928 -2.582823 -0.689767 0
M  V30 43 H 0.318001 -1.085705 -1.457394 0
M  V30 44 H -1.638380 -1.393943 0.341538 0
M  V30 45 H -1.666842 -2.527183 -1.071281 0
M  V30 END ATOM
M  V30 BEGIN BOND
M  V30 1 1 1 2
M  V30 2 1 2 3
M  V30 3 1 2 4
M  V30 4 1 4 5
M  V30 5 1 5 6
M  V30 6 2 6 7 CFG=2
M  V30 7 1 7 8
M  V30 8 2 8 9
M  V30 9 1 9 10
M  V30 10 2 10 11
M  V30 11 1 11 12
M  V30 12 2 12 13
M  V30 13 1 7 14
M  V30 14 2 14 15
M  V30 15 1 15 16
M  V30 16 2 16 17
M  V30 17 1 17 18
M  V30 18 2 18 19
M  V30 19 1 6 20
M  V30 20 1 20 21
M  V30 21 1 21 2
M  V30 22 1 13 8
M  V30 23 1 19 14
M  V30 24 1 1 22
M  V30 25 1 1 23
M  V30 26 1 1 24
M  V30 27 1 3 25
M  V30 28 1 3 26
M  V30 29 1 3 27
M  V30 30 1 4 28
M  V30 31 1 4 29
M  V30 32 1 5 30
M  V30 33 1 5 31
M  V30 34 1 9 32
M  V30 35 1 10 33
M  V30 36 1 11 34
M  V30 37 1 12 35
M  V30 38 1 13 36
M  V30 39 1 15 37
M  V30 40 1 16 38
M  V30 41 1 17 39
M  V30 42 1 18 40
M  V30 43 1 19 41
M  V30 44 1 20 42
M  V30 45 1 20 43
M  V30 46 1 21 44
M  V30 47 1 21 45
M  V30 END BOND
M  V30 END CTAB
M  END
>  <Dataset>  (294) 
OralDrugs

>  <Ligand_Instance>  (294) 
nan

>  <PDB_ID>  (294) 
nan

>  <Standardized_SMILES>  (294) 
C[N+]1(C)CCC(=C(c2ccccc2)c2ccccc2)CC1

>  <Name>  (294) 
Diphemanil

>  <Pocket>  (294) 
nan

>  <ATP_Site>  (294) 
nan

>  <Peripheral>  (294) 
nan

>  <Num_H_Atoms_ProtBoundConf>  (294) 
nan

>  <Num_Resolved_Atoms>  (294) 
nan

>  <Num_Not_Resolved_Atoms>  (294) 
nan

$$$$
CHEMBL936
     RDKit          3D

  0  0  0  0  0  0  0  0  0  0999 V3000
M  V30 BEGIN CTAB
M  V30 COUNTS 50 52 0 0 0
M  V30 BEGIN ATOM
M  V30 1 O -1.125471 0.689238 0.550310 0
M  V30 2 C -1.139732 -0.559959 1.220887 0
M  V30 3 C 0.207458 -1.122692 1.397375 0
M  V30 4 C 1.070485 -1.417841 0.257007 0
M  V30 5 C 1.420566 -0.259397 -0.633637 0
M  V30 6 N 2.276236 -0.764303 -1.689434 0
M  V30 7 C 2.620593 0.289822 -2.611356 0
M  V30 8 C 3.213076 1.433541 -1.870008 0
M  V30 9 C 4.390033 1.022942 -1.059511 0
M  V30 10 C 4.325820 -0.322040 -0.424003 0
M  V30 11 C 3.521306 -1.318733 -1.211620 0
M  V30 12 C -1.586836 -0.146466 2.610590 0
M  V30 13 C -1.536147 -1.046004 3.683322 0
M  V30 14 C -1.913982 -0.752125 4.960913 0
M  V30 15 C -2.378641 0.512472 5.225102 0
M  V30 16 C -2.454383 1.438900 4.225757 0
M  V30 17 C -2.063529 1.102369 2.950845 0
M  V30 18 C -2.187235 -1.439597 0.694235 0
M  V30 19 C -3.316742 -1.881551 1.351367 0
M  V30 20 C -4.285390 -2.702594 0.848846 0
M  V30 21 C -4.158227 -3.155675 -0.439275 0
M  V30 22 C -3.062104 -2.765289 -1.171456 0
M  V30 23 C -2.123338 -1.940099 -0.612949 0
M  V30 24 H -0.323135 1.192198 0.831400 0
M  V30 25 H 0.763322 -0.468557 2.123342 0
M  V30 26 H 0.081310 -2.083126 1.979752 0
M  V30 27 H 0.780809 -2.282730 -0.363148 0
M  V30 28 H 2.074980 -1.743903 0.675898 0
M  V30 29 H 0.550400 0.182964 -1.161624 0
M  V30 30 H 1.949702 0.494700 0.003938 0
M  V30 31 H 1.679070 0.636817 -3.107936 0
M  V30 32 H 3.342380 -0.083022 -3.363147 0
M  V30 33 H 3.576761 2.216130 -2.585328 0
M  V30 34 H 2.488159 1.971482 -1.225651 0
M  V30 35 H 4.513610 1.780850 -0.232314 0
M  V30 36 H 5.321047 1.119136 -1.676743 0
M  V30 37 H 5.364038 -0.721230 -0.350960 0
M  V30 38 H 3.976492 -0.278635 0.645280 0
M  V30 39 H 3.464085 -2.258919 -0.683658 0
M  V30 40 H 4.116382 -1.518432 -2.144145 0
M  V30 41 H -1.183731 -2.059000 3.541341 0
M  V30 42 H -1.863481 -1.467839 5.764881 0
M  V30 43 H -2.681768 0.761700 6.230999 0
M  V30 44 H -2.815255 2.449311 4.389356 0
M  V30 45 H -2.118372 1.837362 2.132897 0
M  V30 46 H -3.480504 -1.558401 2.363632 0
M  V30 47 H -5.148935 -3.003622 1.436677 0
M  V30 48 H -4.908205 -3.801565 -0.855573 0
M  V30 49 H -3.011851 -3.148036 -2.171701 0
M  V30 50 H -1.319603 -1.701987 -1.281510 0
M  V30 END ATOM
M  V30 BEGIN BOND
M  V30 1 1 1 2
M  V30 2 1 2 3
M  V30 3 1 3 4
M  V30 4 1 4 5
M  V30 5 1 5 6
M  V30 6 1 6 7
M  V30 7 1 7 8
M  V30 8 1 8 9
M  V30 9 1 9 10
M  V30 10 1 10 11
M  V30 11 1 2 12
M  V30 12 2 12 13
M  V30 13 1 13 14
M  V30 14 2 14 15
M  V30 15 1 15 16
M  V30 16 2 16 17
M  V30 17 1 2 18
M  V30 18 2 18 19
M  V30 19 1 19 20
M  V30 20 2 20 21
M  V30 21 1 21 22
M  V30 22 2 22 23
M  V30 23 1 11 6
M  V30 24 1 17 12
M  V30 25 1 23 18
M  V30 26 1 1 24
M  V30 27 1 3 25
M  V30 28 1 3 26
M  V30 29 1 4 27
M  V30 30 1 4 28
M  V30 31 1 5 29
M  V30 32 1 5 30
M  V30 33 1 7 31
M  V30 34 1 7 32
M  V30 35 1 8 33
M  V30 36 1 8 34
M  V30 37 1 9 35
M  V30 38 1 9 36
M  V30 39 1 10 37
M  V30 40 1 10 38
M  V30 41 1 11 39
M  V30 42 1 11 40
M  V30 43 1 13 41
M  V30 44 1 14 42
M  V30 45 1 15 43
M  V30 46 1 16 44
M  V30 47 1 17 45
M  V30 48 1 19 46
M  V30 49 1 20 47
M  V30 50 1 21 48
M  V30 51 1 22 49
M  V30 52 1 23 50
M  V30 END BOND
M  V30 END CTAB
M  END
>  <Dataset>  (295) 
OralDrugs

>  <Ligand_Instance>  (295) 
nan

>  <PDB_ID>  (295) 
nan

>  <Standardized_SMILES>  (295) 
OC(CCCN1CCCCC1)(c1ccccc1)c1ccccc1

>  <Name>  (295) 
Diphenidol

>  <Pocket>  (295) 
nan

>  <ATP_Site>  (295) 
nan

>  <Peripheral>  (295) 
nan

>  <Num_H_Atoms_ProtBoundConf>  (295) 
nan

>  <Num_Resolved_Atoms>  (295) 
nan

>  <Num_Not_Resolved_Atoms>  (295) 
nan

$$$$
CHEMBL1201294
     RDKit          3D

  0  0  0  0  0  0  0  0  0  0999 V3000
M  V30 BEGIN CTAB
M  V30 COUNTS 66 69 0 0 0
M  V30 BEGIN ATOM
M  V30 1 C 3.104196 0.024007 4.753377 0
M  V30 2 C 1.847380 0.832938 4.559563 0
M  V30 3 O 1.601094 0.941061 3.171955 0
M  V30 4 C 2.463267 1.507580 2.279555 0
M  V30 5 O 3.452287 1.875035 2.976856 0
M  V30 6 C 1.889217 1.456540 0.885825 0
M  V30 7 C 2.930657 2.074758 0.010899 0
M  V30 8 C 4.223529 1.619657 0.297963 0
M  V30 9 C 5.327598 2.075759 -0.410820 0
M  V30 10 C 5.185349 2.999405 -1.428778 0
M  V30 11 C 3.890520 3.431556 -1.689650 0
M  V30 12 C 2.788583 2.982352 -0.989106 0
M  V30 13 C 0.602502 2.208748 0.862293 0
M  V30 14 C -0.486850 1.673245 0.008685 0
M  V30 15 N -0.218821 0.651804 -0.902908 0
M  V30 16 C -1.338722 -0.212109 -1.165866 0
M  V30 17 C -1.732940 -1.070811 -0.025443 0
M  V30 18 C -2.898770 -1.984101 -0.283753 0
M  V30 19 C -4.108749 -1.199304 -0.640883 0
M  V30 20 N -5.059172 -0.603395 -0.912777 0
M  V30 21 C -2.706376 -2.968148 -1.349148 0
M  V30 22 C -3.582696 -3.085581 -2.439958 0
M  V30 23 C -3.485869 -3.981542 -3.487004 0
M  V30 24 C -2.393791 -4.858269 -3.441603 0
M  V30 25 C -1.483551 -4.815580 -2.409958 0
M  V30 26 C -1.680902 -3.889020 -1.431876 0
M  V30 27 C -3.182560 -2.656524 1.015338 0
M  V30 28 C -2.253769 -3.196937 1.881195 0
M  V30 29 C -2.602378 -3.811094 3.063532 0
M  V30 30 C -3.934399 -3.912674 3.439497 0
M  V30 31 C -4.917121 -3.395387 2.624097 0
M  V30 32 C -4.489746 -2.795460 1.456913 0
M  V30 33 C 1.032344 -0.014745 -0.830833 0
M  V30 34 C 1.769295 0.034295 0.449748 0
M  V30 35 H 3.923955 0.624222 5.209269 0
M  V30 36 H 3.460134 -0.321163 3.770441 0
M  V30 37 H 2.910380 -0.910898 5.348987 0
M  V30 38 H 1.022914 0.271231 5.073151 0
M  V30 39 H 2.007309 1.818447 5.042655 0
M  V30 40 H 4.444378 0.889375 1.082679 0
M  V30 41 H 6.337401 1.706662 -0.171404 0
M  V30 42 H 6.035969 3.363041 -1.988782 0
M  V30 43 H 3.700124 4.152093 -2.471099 0
M  V30 44 H 1.773070 3.293622 -1.163368 0
M  V30 45 H 0.853257 3.272962 0.649893 0
M  V30 46 H 0.214829 2.247855 1.924605 0
M  V30 47 H -1.404194 1.417579 0.600752 0
M  V30 48 H -0.851685 2.555647 -0.609151 0
M  V30 49 H -2.207787 0.483298 -1.359898 0
M  V30 50 H -1.154802 -0.715250 -2.106365 0
M  V30 51 H -0.866570 -1.695243 0.238548 0
M  V30 52 H -1.998844 -0.479761 0.869468 0
M  V30 53 H -4.439474 -2.390606 -2.466255 0
M  V30 54 H -4.237990 -3.958745 -4.266671 0
M  V30 55 H -2.337429 -5.545973 -4.264267 0
M  V30 56 H -0.653010 -5.498378 -2.394500 0
M  V30 57 H -0.937101 -3.889539 -0.636351 0
M  V30 58 H -1.211047 -3.129098 1.609709 0
M  V30 59 H -1.786743 -4.208833 3.682307 0
M  V30 60 H -4.182135 -4.397691 4.368635 0
M  V30 61 H -5.967350 -3.446440 2.866121 0
M  V30 62 H -5.281081 -2.388851 0.818514 0
M  V30 63 H 0.920365 -1.105498 -1.101827 0
M  V30 64 H 1.694050 0.396303 -1.623068 0
M  V30 65 H 1.411102 -0.587648 1.259731 0
M  V30 66 H 2.814145 -0.335082 0.227852 0
M  V30 END ATOM
M  V30 BEGIN BOND
M  V30 1 1 1 2
M  V30 2 1 2 3
M  V30 3 1 3 4
M  V30 4 2 4 5
M  V30 5 1 4 6
M  V30 6 1 6 7
M  V30 7 2 7 8
M  V30 8 1 8 9
M  V30 9 2 9 10
M  V30 10 1 10 11
M  V30 11 2 11 12
M  V30 12 1 6 13
M  V30 13 1 13 14
M  V30 14 1 14 15
M  V30 15 1 15 16
M  V30 16 1 16 17
M  V30 17 1 17 18
M  V30 18 1 18 19
M  V30 19 3 19 20
M  V30 20 1 18 21
M  V30 21 2 21 22
M  V30 22 1 22 23
M  V30 23 2 23 24
M  V30 24 1 24 25
M  V30 25 2 25 26
M  V30 26 1 18 27
M  V30 27 2 27 28
M  V30 28 1 28 29
M  V30 29 2 29 30
M  V30 30 1 30 31
M  V30 31 2 31 32
M  V30 32 1 15 33
M  V30 33 1 33 34
M  V30 34 1 34 6
M  V30 35 1 12 7
M  V30 36 1 26 21
M  V30 37 1 32 27
M  V30 38 1 1 35
M  V30 39 1 1 36
M  V30 40 1 1 37
M  V30 41 1 2 38
M  V30 42 1 2 39
M  V30 43 1 8 40
M  V30 44 1 9 41
M  V30 45 1 10 42
M  V30 46 1 11 43
M  V30 47 1 12 44
M  V30 48 1 13 45
M  V30 49 1 13 46
M  V30 50 1 14 47
M  V30 51 1 14 48
M  V30 52 1 16 49
M  V30 53 1 16 50
M  V30 54 1 17 51
M  V30 55 1 17 52
M  V30 56 1 22 53
M  V30 57 1 23 54
M  V30 58 1 24 55
M  V30 59 1 25 56
M  V30 60 1 26 57
M  V30 61 1 28 58
M  V30 62 1 29 59
M  V30 63 1 30 60
M  V30 64 1 31 61
M  V30 65 1 32 62
M  V30 66 1 33 63
M  V30 67 1 33 64
M  V30 68 1 34 65
M  V30 69 1 34 66
M  V30 END BOND
M  V30 END CTAB
M  END
>  <Dataset>  (296) 
OralDrugs

>  <Ligand_Instance>  (296) 
nan

>  <PDB_ID>  (296) 
nan

>  <Standardized_SMILES>  (296) 
CCOC(=O)C1(c2ccccc2)CCN(CCC(C#N)(c2ccccc2)c2ccccc2)CC1

>  <Name>  (296) 
Diphenoxylate

>  <Pocket>  (296) 
nan

>  <ATP_Site>  (296) 
nan

>  <Peripheral>  (296) 
nan

>  <Num_H_Atoms_ProtBoundConf>  (296) 
nan

>  <Num_Resolved_Atoms>  (296) 
nan

>  <Num_Not_Resolved_Atoms>  (296) 
nan

$$$$
CHEMBL1492
     RDKit          3D

  0  0  0  0  0  0  0  0  0  0999 V3000
M  V30 BEGIN CTAB
M  V30 COUNTS 44 46 0 0 0
M  V30 BEGIN ATOM
M  V30 1 C -1.701140 -3.954782 2.004653 0
M  V30 2 N -2.663539 -3.226618 1.245684 0
M  V30 3 C -2.380656 -3.114212 -0.163544 0
M  V30 4 C -1.143243 -2.336309 -0.487374 0
M  V30 5 C -0.804666 -1.357689 0.612660 0
M  V30 6 O -0.157302 -0.213254 0.128468 0
M  V30 7 C 1.081496 -0.003243 0.697461 0
M  V30 8 C 2.176731 -0.039551 -0.294640 0
M  V30 9 C 2.296734 -0.987354 -1.283231 0
M  V30 10 C 3.352423 -0.976382 -2.196282 0
M  V30 11 C 4.313412 0.033520 -2.095228 0
M  V30 12 C 4.219706 1.000218 -1.112048 0
M  V30 13 C 3.155215 0.948783 -0.229037 0
M  V30 14 C 1.130896 1.244087 1.504056 0
M  V30 15 C 1.700042 1.351933 2.774072 0
M  V30 16 C 1.716252 2.534456 3.470701 0
M  V30 17 C 1.149654 3.648940 2.890541 0
M  V30 18 C 0.569975 3.633028 1.649523 0
M  V30 19 C 0.581194 2.416480 0.992180 0
M  V30 20 C -2.120126 -0.855814 1.184830 0
M  V30 21 C -2.928048 -1.949438 1.844452 0
M  V30 22 H -1.449759 -3.396236 2.934821 0
M  V30 23 H -0.784757 -4.216013 1.456413 0
M  V30 24 H -2.222761 -4.879999 2.385815 0
M  V30 25 H -2.305316 -4.148713 -0.555344 0
M  V30 26 H -3.242900 -2.621915 -0.639662 0
M  V30 27 H -1.312276 -1.799013 -1.444085 0
M  V30 28 H -0.321696 -3.066973 -0.655702 0
M  V30 29 H -0.201738 -1.886267 1.360765 0
M  V30 30 H 1.248672 -0.832180 1.415105 0
M  V30 31 H 1.559954 -1.761561 -1.360598 0
M  V30 32 H 3.384048 -1.752847 -2.947701 0
M  V30 33 H 5.140799 0.050979 -2.802247 0
M  V30 34 H 4.949106 1.797856 -1.006328 0
M  V30 35 H 3.103366 1.709286 0.525457 0
M  V30 36 H 2.122283 0.418475 3.149596 0
M  V30 37 H 2.170780 2.537917 4.438941 0
M  V30 38 H 1.155503 4.593765 3.431441 0
M  V30 39 H 0.111440 4.489744 1.154605 0
M  V30 40 H 0.131136 2.370820 0.010496 0
M  V30 41 H -1.975242 -0.065473 1.927346 0
M  V30 42 H -2.677467 -0.434290 0.319270 0
M  V30 43 H -2.726430 -1.932206 2.932180 0
M  V30 44 H -4.003869 -1.642775 1.709105 0
M  V30 END ATOM
M  V30 BEGIN BOND
M  V30 1 1 1 2
M  V30 2 1 2 3
M  V30 3 1 3 4
M  V30 4 1 4 5
M  V30 5 1 5 6
M  V30 6 1 6 7
M  V30 7 1 7 8
M  V30 8 2 8 9
M  V30 9 1 9 10
M  V30 10 2 10 11
M  V30 11 1 11 12
M  V30 12 2 12 13
M  V30 13 1 7 14
M  V30 14 2 14 15
M  V30 15 1 15 16
M  V30 16 2 16 17
M  V30 17 1 17 18
M  V30 18 2 18 19
M  V30 19 1 5 20
M  V30 20 1 20 21
M  V30 21 1 21 2
M  V30 22 1 13 8
M  V30 23 1 19 14
M  V30 24 1 1 22
M  V30 25 1 1 23
M  V30 26 1 1 24
M  V30 27 1 3 25
M  V30 28 1 3 26
M  V30 29 1 4 27
M  V30 30 1 4 28
M  V30 31 1 5 29
M  V30 32 1 7 30
M  V30 33 1 9 31
M  V30 34 1 10 32
M  V30 35 1 11 33
M  V30 36 1 12 34
M  V30 37 1 13 35
M  V30 38 1 15 36
M  V30 39 1 16 37
M  V30 40 1 17 38
M  V30 41 1 18 39
M  V30 42 1 19 40
M  V30 43 1 20 41
M  V30 44 1 20 42
M  V30 45 1 21 43
M  V30 46 1 21 44
M  V30 END BOND
M  V30 END CTAB
M  END
>  <Dataset>  (297) 
OralDrugs

>  <Ligand_Instance>  (297) 
nan

>  <PDB_ID>  (297) 
nan

>  <Standardized_SMILES>  (297) 
CN1CCC(OC(c2ccccc2)c2ccccc2)CC1

>  <Name>  (297) 
Diphenylpyraline

>  <Pocket>  (297) 
nan

>  <ATP_Site>  (297) 
nan

>  <Peripheral>  (297) 
nan

>  <Num_H_Atoms_ProtBoundConf>  (297) 
nan

>  <Num_Resolved_Atoms>  (297) 
nan

>  <Num_Not_Resolved_Atoms>  (297) 
nan

$$$$
CHEMBL932
     RDKit          3D

  0  0  0  0  0  0  0  0  0  0999 V3000
M  V30 BEGIN CTAB
M  V30 COUNTS 76 79 0 0 0
M  V30 BEGIN ATOM
M  V30 1 O 2.724938 1.828284 3.316187 0
M  V30 2 C 3.598360 2.330620 2.357394 0
M  V30 3 C 4.522379 1.279327 1.794501 0
M  V30 4 N 3.808251 0.211527 1.153272 0
M  V30 5 C 4.667781 -0.845551 0.665583 0
M  V30 6 C 5.266072 -1.576627 1.832379 0
M  V30 7 O 4.235968 -2.112212 2.596848 0
M  V30 8 C 2.413665 0.032572 0.884399 0
M  V30 9 N 1.547686 1.031693 1.125960 0
M  V30 10 C 0.235404 1.004597 0.931019 0
M  V30 11 N -0.544464 2.120183 1.224141 0
M  V30 12 C -1.588075 1.963913 2.211688 0
M  V30 13 C -1.977536 3.369531 2.629097 0
M  V30 14 C -2.617397 4.069566 1.437903 0
M  V30 15 C -1.764966 3.878799 0.200848 0
M  V30 16 C -0.387616 3.431067 0.605627 0
M  V30 17 C -0.327264 -0.136442 0.436733 0
M  V30 18 N -1.645118 -0.255876 0.200520 0
M  V30 19 C -2.133531 -1.409224 -0.294779 0
M  V30 20 N -3.531640 -1.630293 -0.585921 0
M  V30 21 C -4.515503 -2.159106 0.341681 0
M  V30 22 C -4.997866 -3.539502 -0.056304 0
M  V30 23 O -5.950497 -4.002003 0.877342 0
M  V30 24 C -4.046072 -1.314510 -1.895898 0
M  V30 25 C -5.002500 -0.120647 -1.828584 0
M  V30 26 O -4.307588 0.973460 -1.333876 0
M  V30 27 N -1.263731 -2.399114 -0.531277 0
M  V30 28 C 0.060842 -2.349243 -0.319522 0
M  V30 29 N 0.788120 -3.520514 -0.633321 0
M  V30 30 C 0.097969 -4.682202 -1.233785 0
M  V30 31 C 0.593765 -4.667503 -2.688251 0
M  V30 32 C 2.081419 -4.658579 -2.793919 0
M  V30 33 C 2.792915 -3.731223 -1.858267 0
M  V30 34 C 2.189381 -3.847305 -0.473670 0
M  V30 35 C 0.574703 -1.168531 0.188925 0
M  V30 36 N 1.898832 -1.107404 0.397607 0
M  V30 37 H 2.017188 2.522122 3.448761 0
M  V30 38 H 3.007500 2.821921 1.567925 0
M  V30 39 H 4.173395 3.157940 2.839879 0
M  V30 40 H 5.072381 1.807347 0.953225 0
M  V30 41 H 5.266894 0.939981 2.542322 0
M  V30 42 H 4.181692 -1.513661 -0.058612 0
M  V30 43 H 5.543081 -0.330636 0.160199 0
M  V30 44 H 5.929523 -0.944604 2.424972 0
M  V30 45 H 5.892711 -2.431556 1.479933 0
M  V30 46 H 4.231965 -3.086532 2.594653 0
M  V30 47 H -1.182482 1.482506 3.138758 0
M  V30 48 H -2.419317 1.378339 1.808267 0
M  V30 49 H -2.672529 3.344559 3.481737 0
M  V30 50 H -1.031018 3.895486 2.868845 0
M  V30 51 H -3.608791 3.653704 1.240300 0
M  V30 52 H -2.596475 5.153844 1.665054 0
M  V30 53 H -1.712039 4.759518 -0.446876 0
M  V30 54 H -2.161818 3.053184 -0.460700 0
M  V30 55 H 0.161906 4.148075 1.234234 0
M  V30 56 H 0.201340 3.363309 -0.344776 0
M  V30 57 H -3.977575 -2.287882 1.319526 0
M  V30 58 H -5.351045 -1.464749 0.525797 0
M  V30 59 H -5.509690 -3.492373 -1.029270 0
M  V30 60 H -4.171357 -4.261769 -0.002533 0
M  V30 61 H -5.829768 -3.512608 1.746472 0
M  V30 62 H -4.610671 -2.168432 -2.312732 0
M  V30 63 H -3.203746 -1.062029 -2.556582 0
M  V30 64 H -5.865965 -0.358756 -1.161842 0
M  V30 65 H -5.371395 0.130967 -2.831941 0
M  V30 66 H -3.982285 1.565202 -2.066621 0
M  V30 67 H -0.997284 -4.520021 -1.288971 0
M  V30 68 H 0.386841 -5.630168 -0.755310 0
M  V30 69 H 0.231247 -5.567033 -3.237179 0
M  V30 70 H 0.190212 -3.784347 -3.200463 0
M  V30 71 H 2.320833 -4.324926 -3.839814 0
M  V30 72 H 2.502778 -5.685611 -2.738651 0
M  V30 73 H 3.848204 -4.093655 -1.795566 0
M  V30 74 H 2.814011 -2.695930 -2.222720 0
M  V30 75 H 2.712410 -3.308229 0.309182 0
M  V30 76 H 2.304658 -4.923852 -0.193710 0
M  V30 END ATOM
M  V30 BEGIN BOND
M  V30 1 1 1 2
M  V30 2 1 2 3
M  V30 3 1 3 4
M  V30 4 1 4 5
M  V30 5 1 5 6
M  V30 6 1 6 7
M  V30 7 1 4 8
M  V30 8 2 8 9
M  V30 9 1 9 10
M  V30 10 1 10 11
M  V30 11 1 11 12
M  V30 12 1 12 13
M  V30 13 1 13 14
M  V30 14 1 14 15
M  V30 15 1 15 16
M  V30 16 2 10 17
M  V30 17 1 17 18
M  V30 18 2 18 19
M  V30 19 1 19 20
M  V30 20 1 20 21
M  V30 21 1 21 22
M  V30 22 1 22 23
M  V30 23 1 20 24
M  V30 24 1 24 25
M  V30 25 1 25 26
M  V30 26 1 19 27
M  V30 27 2 27 28
M  V30 28 1 28 29
M  V30 29 1 29 30
M  V30 30 1 30 31
M  V30 31 1 31 32
M  V30 32 1 32 33
M  V30 33 1 33 34
M  V30 34 1 28 35
M  V30 35 2 35 36
M  V30 36 1 36 8
M  V30 37 1 16 11
M  V30 38 1 35 17
M  V30 39 1 34 29
M  V30 40 1 1 37
M  V30 41 1 2 38
M  V30 42 1 2 39
M  V30 43 1 3 40
M  V30 44 1 3 41
M  V30 45 1 5 42
M  V30 46 1 5 43
M  V30 47 1 6 44
M  V30 48 1 6 45
M  V30 49 1 7 46
M  V30 50 1 12 47
M  V30 51 1 12 48
M  V30 52 1 13 49
M  V30 53 1 13 50
M  V30 54 1 14 51
M  V30 55 1 14 52
M  V30 56 1 15 53
M  V30 57 1 15 54
M  V30 58 1 16 55
M  V30 59 1 16 56
M  V30 60 1 21 57
M  V30 61 1 21 58
M  V30 62 1 22 59
M  V30 63 1 22 60
M  V30 64 1 23 61
M  V30 65 1 24 62
M  V30 66 1 24 63
M  V30 67 1 25 64
M  V30 68 1 25 65
M  V30 69 1 26 66
M  V30 70 1 30 67
M  V30 71 1 30 68
M  V30 72 1 31 69
M  V30 73 1 31 70
M  V30 74 1 32 71
M  V30 75 1 32 72
M  V30 76 1 33 73
M  V30 77 1 33 74
M  V30 78 1 34 75
M  V30 79 1 34 76
M  V30 END BOND
M  V30 END CTAB
M  END
>  <Dataset>  (298) 
OralDrugs

>  <Ligand_Instance>  (298) 
nan

>  <PDB_ID>  (298) 
nan

>  <Standardized_SMILES>  (298) 
OCCN(CCO)c1nc(N2CCCCC2)c2nc(N(CCO)CCO)nc(N3CCCCC3)c2n1

>  <Name>  (298) 
Dipyridamole

>  <Pocket>  (298) 
nan

>  <ATP_Site>  (298) 
nan

>  <Peripheral>  (298) 
nan

>  <Num_H_Atoms_ProtBoundConf>  (298) 
nan

>  <Num_Resolved_Atoms>  (298) 
nan

>  <Num_Not_Resolved_Atoms>  (298) 
nan

$$$$
CHEMBL517
     RDKit          3D

  0  0  0  0  0  0  0  0  0  0999 V3000
M  V30 BEGIN CTAB
M  V30 COUNTS 54 55 0 0 0
M  V30 BEGIN ATOM
M  V30 1 C -0.120019 -4.531240 0.249534 0
M  V30 2 C -0.777899 -3.170561 0.270874 0
M  V30 3 C -2.220146 -3.363998 -0.103212 0
M  V30 4 N -0.097290 -2.122278 -0.374081 0
M  V30 5 C 1.169095 -1.751740 0.134237 0
M  V30 6 C 1.341780 -1.119195 1.426845 0
M  V30 7 C 0.729254 0.188799 1.753852 0
M  V30 8 C 1.191996 0.419222 3.204987 0
M  V30 9 N 0.742332 1.432286 4.100648 0
M  V30 10 O 2.037359 -0.271567 3.798339 0
M  V30 11 C 1.272887 1.352938 1.027211 0
M  V30 12 C 1.140582 1.586348 -0.323861 0
M  V30 13 C 1.633078 2.655488 -1.036646 0
M  V30 14 C 2.346183 3.629633 -0.372928 0
M  V30 15 C 2.531043 3.479976 0.984230 0
M  V30 16 C 2.006705 2.385493 1.615443 0
M  V30 17 C -0.753364 0.208280 1.894722 0
M  V30 18 C -1.702668 0.253079 0.904456 0
M  V30 19 C -3.066458 0.267455 1.041027 0
M  V30 20 C -3.582428 0.233982 2.317602 0
M  V30 21 C -2.664951 0.188798 3.339103 0
M  V30 22 N -1.365253 0.177705 3.122710 0
M  V30 23 C -0.039598 -2.095980 -1.793904 0
M  V30 24 C 0.617796 -3.288191 -2.450457 0
M  V30 25 C -1.293007 -1.792014 -2.534780 0
M  V30 26 H -0.433774 -5.130574 -0.630952 0
M  V30 27 H 0.946688 -4.541887 0.453728 0
M  V30 28 H -0.578615 -5.100997 1.114095 0
M  V30 29 H -0.810757 -2.899870 1.373585 0
M  V30 30 H -2.714442 -4.135182 0.564321 0
M  V30 31 H -2.858561 -2.469771 0.025596 0
M  V30 32 H -2.385779 -3.771711 -1.120769 0
M  V30 33 H 1.723811 -1.175972 -0.638476 0
M  V30 34 H 1.778600 -2.713673 0.183176 0
M  V30 35 H 2.465365 -0.927389 1.506125 0
M  V30 36 H 1.244029 -1.863135 2.281830 0
M  V30 37 H 0.285881 1.186694 5.024087 0
M  V30 38 H 0.587664 2.408513 4.399991 0
M  V30 39 H 0.619063 0.893033 -0.962018 0
M  V30 40 H 1.505478 2.798728 -2.087243 0
M  V30 41 H 2.741878 4.470377 -0.887501 0
M  V30 42 H 3.092322 4.253306 1.487062 0
M  V30 43 H 2.231425 2.377986 2.671681 0
M  V30 44 H -1.378715 0.283726 -0.114410 0
M  V30 45 H -3.737233 0.302238 0.217900 0
M  V30 46 H -4.618630 0.239374 2.580349 0
M  V30 47 H -3.012800 0.160872 4.362943 0
M  V30 48 H 0.664297 -1.240672 -2.047166 0
M  V30 49 H -0.104824 -4.078823 -2.758489 0
M  V30 50 H 1.070256 -2.962474 -3.435109 0
M  V30 51 H 1.439419 -3.728109 -1.895174 0
M  V30 52 H -1.690736 -2.677179 -3.118533 0
M  V30 53 H -1.129892 -1.038101 -3.367611 0
M  V30 54 H -2.127470 -1.395499 -1.970276 0
M  V30 END ATOM
M  V30 BEGIN BOND
M  V30 1 1 1 2
M  V30 2 1 2 3
M  V30 3 1 2 4
M  V30 4 1 4 5
M  V30 5 1 5 6
M  V30 6 1 6 7
M  V30 7 1 7 8
M  V30 8 1 8 9
M  V30 9 2 8 10
M  V30 10 1 7 11
M  V30 11 2 11 12
M  V30 12 1 12 13
M  V30 13 2 13 14
M  V30 14 1 14 15
M  V30 15 2 15 16
M  V30 16 1 7 17
M  V30 17 2 17 18
M  V30 18 1 18 19
M  V30 19 2 19 20
M  V30 20 1 20 21
M  V30 21 2 21 22
M  V30 22 1 4 23
M  V30 23 1 23 24
M  V30 24 1 23 25
M  V30 25 1 16 11
M  V30 26 1 22 17
M  V30 27 1 1 26
M  V30 28 1 1 27
M  V30 29 1 1 28
M  V30 30 1 2 29
M  V30 31 1 3 30
M  V30 32 1 3 31
M  V30 33 1 3 32
M  V30 34 1 5 33
M  V30 35 1 5 34
M  V30 36 1 6 35
M  V30 37 1 6 36
M  V30 38 1 9 37
M  V30 39 1 9 38
M  V30 40 1 12 39
M  V30 41 1 13 40
M  V30 42 1 14 41
M  V30 43 1 15 42
M  V30 44 1 16 43
M  V30 45 1 18 44
M  V30 46 1 19 45
M  V30 47 1 20 46
M  V30 48 1 21 47
M  V30 49 1 23 48
M  V30 50 1 24 49
M  V30 51 1 24 50
M  V30 52 1 24 51
M  V30 53 1 25 52
M  V30 54 1 25 53
M  V30 55 1 25 54
M  V30 END BOND
M  V30 END CTAB
M  END
>  <Dataset>  (299) 
OralDrugs

>  <Ligand_Instance>  (299) 
nan

>  <PDB_ID>  (299) 
nan

>  <Standardized_SMILES>  (299) 
CC(C)N(CCC(C(N)=O)(c1ccccc1)c1ccccn1)C(C)C

>  <Name>  (299) 
Disopyramide

>  <Pocket>  (299) 
nan

>  <ATP_Site>  (299) 
nan

>  <Peripheral>  (299) 
nan

>  <Num_H_Atoms_ProtBoundConf>  (299) 
nan

>  <Num_Resolved_Atoms>  (299) 
nan

>  <Num_Not_Resolved_Atoms>  (299) 
nan

$$$$
CHEMBL964
     RDKit          3D

  0  0  0  0  0  0  0  0  0  0999 V3000
M  V30 BEGIN CTAB
M  V30 COUNTS 36 35 0 0 0
M  V30 BEGIN ATOM
M  V30 1 C -3.824249 -3.384808 3.128600 0
M  V30 2 C -2.368692 -3.510178 2.782722 0
M  V30 3 N -1.887048 -2.480847 1.885335 0
M  V30 4 C -2.412975 -2.554660 0.553121 0
M  V30 5 C -1.910303 -1.515797 -0.393301 0
M  V30 6 C -0.971450 -1.477636 2.303094 0
M  V30 7 S -0.440575 -1.471579 3.851350 0
M  V30 8 S 0.163889 -0.251284 2.860565 0
M  V30 9 S 0.688394 1.098229 1.350626 0
M  V30 10 C 2.111744 0.618693 0.395999 0
M  V30 11 S 2.711179 -0.825606 0.842261 0
M  V30 12 N 2.679236 1.398899 -0.645583 0
M  V30 13 C 2.253174 2.687580 -1.134780 0
M  V30 14 C 1.022753 3.234813 -0.453229 0
M  V30 15 C 3.825227 1.072133 -1.440453 0
M  V30 16 C 4.474713 -0.238916 -1.165231 0
M  V30 17 H -4.002298 -3.620010 4.207772 0
M  V30 18 H -4.373570 -4.186873 2.566737 0
M  V30 19 H -4.281207 -2.430766 2.842489 0
M  V30 20 H -2.147718 -4.537646 2.397567 0
M  V30 21 H -1.766518 -3.417990 3.723852 0
M  V30 22 H -3.520820 -2.539664 0.658331 0
M  V30 23 H -2.166179 -3.556321 0.133535 0
M  V30 24 H -1.399711 -0.654193 0.079865 0
M  V30 25 H -2.763192 -1.146183 -1.006262 0
M  V30 26 H -1.131309 -1.969539 -1.069531 0
M  V30 27 H 3.068325 3.432269 -0.977961 0
M  V30 28 H 2.057447 2.702015 -2.233451 0
M  V30 29 H 0.137687 2.578719 -0.606592 0
M  V30 30 H 0.807835 4.205175 -0.965583 0
M  V30 31 H 1.237619 3.445184 0.598756 0
M  V30 32 H 4.624235 1.851641 -1.297557 0
M  V30 33 H 3.582513 1.102121 -2.525468 0
M  V30 34 H 5.318260 -0.321408 -1.927382 0
M  V30 35 H 4.943451 -0.328619 -0.172306 0
M  V30 36 H 3.873800 -1.133819 -1.352927 0
M  V30 END ATOM
M  V30 BEGIN BOND
M  V30 1 1 1 2
M  V30 2 1 2 3
M  V30 3 1 3 4
M  V30 4 1 4 5
M  V30 5 1 3 6
M  V30 6 2 6 7
M  V30 7 1 6 8
M  V30 8 1 8 9
M  V30 9 1 9 10
M  V30 10 2 10 11
M  V30 11 1 10 12
M  V30 12 1 12 13
M  V30 13 1 13 14
M  V30 14 1 12 15
M  V30 15 1 15 16
M  V30 16 1 1 17
M  V30 17 1 1 18
M  V30 18 1 1 19
M  V30 19 1 2 20
M  V30 20 1 2 21
M  V30 21 1 4 22
M  V30 22 1 4 23
M  V30 23 1 5 24
M  V30 24 1 5 25
M  V30 25 1 5 26
M  V30 26 1 13 27
M  V30 27 1 13 28
M  V30 28 1 14 29
M  V30 29 1 14 30
M  V30 30 1 14 31
M  V30 31 1 15 32
M  V30 32 1 15 33
M  V30 33 1 16 34
M  V30 34 1 16 35
M  V30 35 1 16 36
M  V30 END BOND
M  V30 END CTAB
M  END
>  <Dataset>  (300) 
OralDrugs

>  <Ligand_Instance>  (300) 
nan

>  <PDB_ID>  (300) 
nan

>  <Standardized_SMILES>  (300) 
CCN(CC)C(=S)SSC(=S)N(CC)CC

>  <Name>  (300) 
Disulfiram

>  <Pocket>  (300) 
nan

>  <ATP_Site>  (300) 
nan

>  <Peripheral>  (300) 
nan

>  <Num_H_Atoms_ProtBoundConf>  (300) 
nan

>  <Num_Resolved_Atoms>  (300) 
nan

>  <Num_Not_Resolved_Atoms>  (300) 
nan

$$$$
CHEMBL2105613
     RDKit          3D

  0  0  0  0  0  0  0  0  0  0999 V3000
M  V30 BEGIN CTAB
M  V30 COUNTS 26 25 0 0 0
M  V30 BEGIN ATOM
M  V30 1 C 0.108473 2.464684 0.929339 0
M  V30 2 C 0.636042 1.328021 1.715826 0
M  V30 3 C 1.194980 0.172294 0.998195 0
M  V30 4 C 0.342741 -0.591143 0.071264 0
M  V30 5 C -0.885242 -1.207678 0.673676 0
M  V30 6 C -0.469065 -2.163177 1.760527 0
M  V30 7 C 0.410906 -3.273043 1.253251 0
M  V30 8 C 0.105428 0.087474 -1.218976 0
M  V30 9 O 0.457957 1.162727 -1.761659 0
M  V30 10 O -0.723441 -0.697477 -2.000838 0
M  V30 11 H 0.907413 2.902014 0.294461 0
M  V30 12 H -0.808363 2.315329 0.363449 0
M  V30 13 H -0.150302 3.278615 1.675391 0
M  V30 14 H 1.485070 1.748934 2.336537 0
M  V30 15 H -0.119060 1.044836 2.487828 0
M  V30 16 H 2.096656 0.508396 0.426468 0
M  V30 17 H 1.565879 -0.549383 1.780075 0
M  V30 18 H 0.973744 -1.498931 -0.221675 0
M  V30 19 H -1.356768 -1.821035 -0.147849 0
M  V30 20 H -1.632621 -0.515261 1.050399 0
M  V30 21 H 0.053895 -1.660851 2.579740 0
M  V30 22 H -1.379444 -2.659922 2.174553 0
M  V30 23 H 1.470106 -2.957053 1.116497 0
M  V30 24 H 0.429981 -4.055197 2.021409 0
M  V30 25 H 0.067318 -3.701017 0.304293 0
M  V30 26 H -1.006328 -0.399085 -2.944037 0
M  V30 END ATOM
M  V30 BEGIN BOND
M  V30 1 1 1 2
M  V30 2 1 2 3
M  V30 3 1 3 4
M  V30 4 1 4 5
M  V30 5 1 5 6
M  V30 6 1 6 7
M  V30 7 1 4 8
M  V30 8 2 8 9
M  V30 9 1 8 10
M  V30 10 1 1 11
M  V30 11 1 1 12
M  V30 12 1 1 13
M  V30 13 1 2 14
M  V30 14 1 2 15
M  V30 15 1 3 16
M  V30 16 1 3 17
M  V30 17 1 4 18
M  V30 18 1 5 19
M  V30 19 1 5 20
M  V30 20 1 6 21
M  V30 21 1 6 22
M  V30 22 1 7 23
M  V30 23 1 7 24
M  V30 24 1 7 25
M  V30 25 1 10 26
M  V30 END BOND
M  V30 END CTAB
M  END
>  <Dataset>  (301) 
OralDrugs

>  <Ligand_Instance>  (301) 
nan

>  <PDB_ID>  (301) 
nan

>  <Standardized_SMILES>  (301) 
CCCC(CCC)C(=O)O

>  <Name>  (301) 
Divalproex Sodium

>  <Pocket>  (301) 
nan

>  <ATP_Site>  (301) 
nan

>  <Peripheral>  (301) 
nan

>  <Num_H_Atoms_ProtBoundConf>  (301) 
nan

>  <Num_Resolved_Atoms>  (301) 
nan

>  <Num_Not_Resolved_Atoms>  (301) 
nan

$$$$
CHEMBL473
     RDKit          3D

  0  0  0  0  0  0  0  0  0  0999 V3000
M  V30 BEGIN CTAB
M  V30 COUNTS 56 57 0 0 0
M  V30 BEGIN ATOM
M  V30 1 C -1.162532 0.308473 3.254892 0
M  V30 2 N -0.801041 -1.069624 3.304932 0
M  V30 3 C 0.419366 -1.438856 3.863670 0
M  V30 4 C 1.722075 -1.255295 3.210886 0
M  V30 5 O 2.217901 -0.053920 2.809101 0
M  V30 6 C 1.860174 0.823740 1.847722 0
M  V30 7 C 0.932068 0.989248 0.838271 0
M  V30 8 C 0.875454 2.088255 0.013063 0
M  V30 9 C 1.785425 3.112643 0.169429 0
M  V30 10 N 1.546746 4.136960 -0.801305 0
M  V30 11 S 2.950458 4.668759 -1.617189 0
M  V30 12 C 3.734581 3.373191 -2.538660 0
M  V30 13 O 2.586072 5.737208 -2.638007 0
M  V30 14 O 3.868437 5.318698 -0.624542 0
M  V30 15 C 2.746236 3.029462 1.152574 0
M  V30 16 C 2.771980 1.893293 1.975057 0
M  V30 17 C -1.917343 -1.889380 3.589814 0
M  V30 18 C -2.946229 -1.972367 2.519639 0
M  V30 19 C -2.413709 -2.514586 1.234851 0
M  V30 20 C -1.888943 -1.754828 0.212080 0
M  V30 21 C -1.411208 -2.347090 -0.937830 0
M  V30 22 C -1.438138 -3.720770 -1.110723 0
M  V30 23 N -0.903870 -4.147544 -2.353504 0
M  V30 24 S -1.626262 -5.312384 -3.436867 0
M  V30 25 C -3.191302 -4.767710 -4.011176 0
M  V30 26 O -1.820896 -6.545812 -2.602359 0
M  V30 27 O -0.724116 -5.607812 -4.577598 0
M  V30 28 C -1.967383 -4.496701 -0.080677 0
M  V30 29 C -2.441702 -3.890444 1.062311 0
M  V30 30 H -0.358919 0.994549 3.632014 0
M  V30 31 H -2.024124 0.545499 3.959352 0
M  V30 32 H -1.548555 0.627552 2.270740 0
M  V30 33 H 0.524515 -0.996551 4.933736 0
M  V30 34 H 0.373910 -2.563994 4.136808 0
M  V30 35 H 1.667231 -1.945742 2.272376 0
M  V30 36 H 2.538892 -1.842761 3.783957 0
M  V30 37 H 0.318459 0.089181 0.852186 0
M  V30 38 H 0.055793 1.976139 -0.697977 0
M  V30 39 H 0.590118 4.514031 -0.979943 0
M  V30 40 H 3.468799 3.401379 -3.616992 0
M  V30 41 H 4.830338 3.554224 -2.493780 0
M  V30 42 H 3.445619 2.368126 -2.179940 0
M  V30 43 H 3.384828 3.888701 1.162373 0
M  V30 44 H 3.613538 2.055872 2.672008 0
M  V30 45 H -1.658422 -2.924194 3.895241 0
M  V30 46 H -2.439615 -1.431887 4.480519 0
M  V30 47 H -3.743030 -2.683849 2.896390 0
M  V30 48 H -3.479914 -1.041663 2.300685 0
M  V30 49 H -1.863795 -0.689652 0.332481 0
M  V30 50 H -1.015573 -1.654183 -1.692727 0
M  V30 51 H 0.020636 -3.727103 -2.657410 0
M  V30 52 H -3.246325 -4.676612 -5.118664 0
M  V30 53 H -3.441215 -3.760677 -3.597196 0
M  V30 54 H -3.970909 -5.471125 -3.672443 0
M  V30 55 H -1.945278 -5.554343 -0.292945 0
M  V30 56 H -2.835797 -4.551586 1.814139 0
M  V30 END ATOM
M  V30 BEGIN BOND
M  V30 1 1 1 2
M  V30 2 1 2 3
M  V30 3 1 3 4
M  V30 4 1 4 5
M  V30 5 1 5 6
M  V30 6 2 6 7
M  V30 7 1 7 8
M  V30 8 2 8 9
M  V30 9 1 9 10
M  V30 10 1 10 11
M  V30 11 1 11 12
M  V30 12 2 11 13
M  V30 13 2 11 14
M  V30 14 1 9 15
M  V30 15 2 15 16
M  V30 16 1 2 17
M  V30 17 1 17 18
M  V30 18 1 18 19
M  V30 19 2 19 20
M  V30 20 1 20 21
M  V30 21 2 21 22
M  V30 22 1 22 23
M  V30 23 1 23 24
M  V30 24 1 24 25
M  V30 25 2 24 26
M  V30 26 2 24 27
M  V30 27 1 22 28
M  V30 28 2 28 29
M  V30 29 1 16 6
M  V30 30 1 29 19
M  V30 31 1 1 30
M  V30 32 1 1 31
M  V30 33 1 1 32
M  V30 34 1 3 33
M  V30 35 1 3 34
M  V30 36 1 4 35
M  V30 37 1 4 36
M  V30 38 1 7 37
M  V30 39 1 8 38
M  V30 40 1 10 39
M  V30 41 1 12 40
M  V30 42 1 12 41
M  V30 43 1 12 42
M  V30 44 1 15 43
M  V30 45 1 16 44
M  V30 46 1 17 45
M  V30 47 1 17 46
M  V30 48 1 18 47
M  V30 49 1 18 48
M  V30 50 1 20 49
M  V30 51 1 21 50
M  V30 52 1 23 51
M  V30 53 1 25 52
M  V30 54 1 25 53
M  V30 55 1 25 54
M  V30 56 1 28 55
M  V30 57 1 29 56
M  V30 END BOND
M  V30 END CTAB
M  END
>  <Dataset>  (302) 
OralDrugs

>  <Ligand_Instance>  (302) 
nan

>  <PDB_ID>  (302) 
nan

>  <Standardized_SMILES>  (302) 
CN(CCOc1ccc(NS(C)(=O)=O)cc1)CCc1ccc(NS(C)(=O)=O)cc1

>  <Name>  (302) 
Dofetilide

>  <Pocket>  (302) 
nan

>  <ATP_Site>  (302) 
nan

>  <Peripheral>  (302) 
nan

>  <Num_H_Atoms_ProtBoundConf>  (302) 
nan

>  <Num_Resolved_Atoms>  (302) 
nan

>  <Num_Not_Resolved_Atoms>  (302) 
nan

$$$$
CHEMBL2368925
     RDKit          2D

  0  0  0  0  0  0  0  0  0  0999 V3000
M  V30 BEGIN CTAB
M  V30 COUNTS 44 48 0 0 0
M  V30 BEGIN ATOM
M  V30 1 O 1.270945 -4.253461 0.000000 0
M  V30 2 C 2.420011 -3.289280 0.000000 0
M  V30 3 O 2.159539 -1.812068 0.000000 0
M  V30 4 C 0.750000 -1.299038 0.000000 0
M  V30 5 C 1.500000 0.000000 0.000000 0
M  V30 6 C 0.750000 1.299038 0.000000 0
M  V30 7 C 1.500000 2.598076 0.000000 0
M  V30 8 C 0.750000 3.897114 0.000000 0
M  V30 9 C -0.199558 2.018509 0.000000 0
M  V30 10 C -1.500000 0.000000 0.000000 0
M  V30 11 C -0.750000 -1.299038 0.000000 0
M  V30 12 N -0.750000 1.299038 0.000000 0
M  V30 13 C -1.500000 2.598076 0.000000 0
M  V30 14 C -0.750000 3.897114 0.000000 0
M  V30 15 O -1.500000 5.196152 0.000000 0
M  V30 16 C 3.829550 -3.802310 0.000000 0
M  V30 17 C 5.073106 -2.963521 0.000000 0
M  V30 18 N 6.255123 -3.887013 0.000000 0
M  V30 19 C 5.742092 -5.296552 0.000000 0
M  V30 20 C 6.446300 -6.620973 0.000000 0
M  V30 21 C 5.651421 -7.893045 0.000000 0
M  V30 22 C 4.152335 -7.840696 0.000000 0
M  V30 23 C 3.448127 -6.516275 0.000000 0
M  V30 24 C 4.243006 -5.244203 0.000000 0
M  V30 25 H 0.489528 -2.776250 0.000000 0
M  V30 26 H 2.713404 0.591736 0.000000 0
M  V30 27 H 2.649067 -0.964181 0.000000 0
M  V30 28 H 2.100000 1.299038 0.000000 0
M  V30 29 H 2.649067 3.562258 0.000000 0
M  V30 30 H 2.848227 1.940592 0.000000 0
M  V30 31 H 1.500000 5.196152 0.000000 0
M  V30 32 H -1.652989 1.509864 0.000000 0
M  V30 33 H -2.338856 2.743511 0.000000 0
M  V30 34 H -3.000000 0.000000 0.000000 0
M  V30 35 H -0.489528 -2.776250 0.000000 0
M  V30 36 H -2.159539 -1.812068 0.000000 0
M  V30 37 H -2.168568 2.163929 0.000000 0
M  V30 38 H -2.649067 3.562258 0.000000 0
M  V30 39 H 5.125456 -1.464435 0.000000 0
M  V30 40 H 7.697015 -3.473557 0.000000 0
M  V30 41 H 7.945386 -6.673323 0.000000 0
M  V30 42 H 6.355628 -9.217467 0.000000 0
M  V30 43 H 3.357456 -9.112768 0.000000 0
M  V30 44 H 1.949041 -6.463926 0.000000 0
M  V30 END ATOM
M  V30 BEGIN BOND
M  V30 1 2 1 2
M  V30 2 1 2 3
M  V30 3 1 3 4
M  V30 4 1 4 5
M  V30 5 1 5 6
M  V30 6 1 6 7
M  V30 7 1 7 8
M  V30 8 1 8 9
M  V30 9 1 9 10
M  V30 10 1 10 11
M  V30 11 1 10 12
M  V30 12 1 12 13
M  V30 13 1 13 14
M  V30 14 2 14 15
M  V30 15 1 2 16
M  V30 16 2 16 17
M  V30 17 1 17 18
M  V30 18 1 18 19
M  V30 19 2 19 20
M  V30 20 1 20 21
M  V30 21 2 21 22
M  V30 22 1 22 23
M  V30 23 2 23 24
M  V30 24 1 11 4
M  V30 25 1 24 16
M  V30 26 1 12 6
M  V30 27 1 24 19
M  V30 28 1 14 8
M  V30 29 1 4 25 CFG=3
M  V30 30 1 5 26
M  V30 31 1 5 27
M  V30 32 1 6 28 CFG=3
M  V30 33 1 7 29
M  V30 34 1 7 30
M  V30 35 1 8 31 CFG=3
M  V30 36 1 9 32
M  V30 37 1 9 33
M  V30 38 1 10 34 CFG=1
M  V30 39 1 11 35
M  V30 40 1 11 36
M  V30 41 1 13 37
M  V30 42 1 13 38
M  V30 43 1 17 39
M  V30 44 1 18 40
M  V30 45 1 20 41
M  V30 46 1 21 42
M  V30 47 1 22 43
M  V30 48 1 23 44
M  V30 END BOND
M  V30 END CTAB
M  END
>  <Dataset>  (303) 
OralDrugs

>  <Ligand_Instance>  (303) 
nan

>  <PDB_ID>  (303) 
nan

>  <Standardized_SMILES>  (303) 
O=C(O[C@@H]1C[C@@H]2C[C@H]3C[C@H](C1)N2CC3=O)c1c[nH]c2ccccc12

>  <Name>  (303) 
Dolasetron

>  <Pocket>  (303) 
nan

>  <ATP_Site>  (303) 
nan

>  <Peripheral>  (303) 
nan

>  <Num_H_Atoms_ProtBoundConf>  (303) 
nan

>  <Num_Resolved_Atoms>  (303) 
nan

>  <Num_Not_Resolved_Atoms>  (303) 
nan

$$$$
CHEMBL1229211
     RDKit          3D

  0  0  0  0  0  0  0  0  0  0999 V3000
M  V30 BEGIN CTAB
M  V30 COUNTS 49 52 0 0 0
M  V30 BEGIN ATOM
M  V30 1 C 2.444298 -6.016348 0.098911 0
M  V30 2 C 2.873884 -4.920303 1.023318 0 CFG=2
M  V30 3 C 2.664175 -5.430809 2.455555 0
M  V30 4 C 3.064818 -4.410205 3.474166 0
M  V30 5 O 3.077758 -3.178785 2.868690 0
M  V30 6 C 1.859291 -3.028639 2.165433 0 CFG=1
M  V30 7 C 1.618503 -1.566508 2.031873 0
M  V30 8 N 1.025243 -1.139844 0.799760 0
M  V30 9 C 0.537285 0.115639 0.788418 0
M  V30 10 C -0.065380 0.679587 -0.328175 0
M  V30 11 C -0.559990 2.041028 -0.235172 0
M  V30 12 O -0.433524 2.687355 0.850342 0
M  V30 13 N -1.195353 2.808599 -1.209832 0
M  V30 14 C -1.669848 4.169823 -1.058744 0
M  V30 15 C -2.676803 4.165310 0.033917 0
M  V30 16 C -2.541517 4.628675 1.308110 0
M  V30 17 C -3.556451 4.573387 2.231603 0
M  V30 18 C -4.774464 4.045770 1.925643 0
M  V30 19 F -5.719075 4.028970 2.891349 0
M  V30 20 C -4.959897 3.564325 0.649138 0
M  V30 21 C -3.933125 3.625084 -0.269915 0
M  V30 22 F -4.185147 3.128924 -1.519584 0
M  V30 23 C -0.115172 -0.162623 -1.414041 0
M  V30 24 O -0.638857 0.258359 -2.462428 0
M  V30 25 C 0.374055 -1.449219 -1.433781 0
M  V30 26 O 0.275782 -2.221549 -2.582525 0
M  V30 27 C 0.953208 -1.921663 -0.282329 0
M  V30 28 C 1.468892 -3.283953 -0.288662 0
M  V30 29 O 1.431229 -4.065828 -1.271569 0
M  V30 30 N 2.051501 -3.735137 0.917602 0
M  V30 31 H 1.328530 -6.042758 -0.030206 0
M  V30 32 H 2.668206 -6.994476 0.611235 0
M  V30 33 H 2.998672 -6.067313 -0.852487 0
M  V30 34 H 3.911096 -4.657993 0.824648 0
M  V30 35 H 3.244631 -6.370819 2.533108 0
M  V30 36 H 1.601146 -5.723583 2.557601 0
M  V30 37 H 4.059125 -4.676379 3.906272 0
M  V30 38 H 2.294120 -4.390767 4.276675 0
M  V30 39 H 1.097430 -3.527942 2.808743 0
M  V30 40 H 2.575838 -0.992730 2.160023 0
M  V30 41 H 0.949968 -1.277951 2.892401 0
M  V30 42 H 0.608716 0.740369 1.693617 0
M  V30 43 H -1.351331 2.373801 -2.143773 0
M  V30 44 H -2.113458 4.555410 -1.997077 0
M  V30 45 H -0.802963 4.826109 -0.759337 0
M  V30 46 H -1.582437 5.052623 1.559274 0
M  V30 47 H -3.318893 4.977698 3.215532 0
M  V30 48 H -5.929533 3.146670 0.412674 0
M  V30 49 H -0.341282 -3.046845 -2.580392 0
M  V30 END ATOM
M  V30 BEGIN BOND
M  V30 1 1 1 2
M  V30 2 1 2 3
M  V30 3 1 3 4
M  V30 4 1 4 5
M  V30 5 1 5 6
M  V30 6 1 6 7
M  V30 7 1 7 8
M  V30 8 1 8 9
M  V30 9 2 9 10
M  V30 10 1 10 11
M  V30 11 2 11 12
M  V30 12 1 11 13
M  V30 13 1 13 14
M  V30 14 1 14 15
M  V30 15 2 15 16
M  V30 16 1 16 17
M  V30 17 2 17 18
M  V30 18 1 18 19
M  V30 19 1 18 20
M  V30 20 2 20 21
M  V30 21 1 21 22
M  V30 22 1 10 23
M  V30 23 2 23 24
M  V30 24 1 23 25
M  V30 25 1 25 26
M  V30 26 2 25 27
M  V30 27 1 27 28
M  V30 28 2 28 29
M  V30 29 1 28 30
M  V30 30 1 30 2
M  V30 31 1 30 6
M  V30 32 1 27 8
M  V30 33 1 21 15
M  V30 34 1 1 31
M  V30 35 1 1 32
M  V30 36 1 1 33
M  V30 37 1 2 34 CFG=1
M  V30 38 1 3 35
M  V30 39 1 3 36
M  V30 40 1 4 37
M  V30 41 1 4 38
M  V30 42 1 6 39 CFG=1
M  V30 43 1 7 40
M  V30 44 1 7 41
M  V30 45 1 9 42
M  V30 46 1 13 43
M  V30 47 1 14 44
M  V30 48 1 14 45
M  V30 49 1 16 46
M  V30 50 1 17 47
M  V30 51 1 20 48
M  V30 52 1 26 49
M  V30 END BOND
M  V30 END CTAB
M  END
>  <Dataset>  (304) 
OralDrugs

>  <Ligand_Instance>  (304) 
nan

>  <PDB_ID>  (304) 
nan

>  <Standardized_SMILES>  (304) 
C[C@@H]1CCO[C@H]2Cn3cc(C(=O)NCc4ccc(F)cc4F)c(=O)c(O)c3C(=O)N12

>  <Name>  (304) 
Dolutegravir

>  <Pocket>  (304) 
nan

>  <ATP_Site>  (304) 
nan

>  <Peripheral>  (304) 
nan

>  <Num_H_Atoms_ProtBoundConf>  (304) 
nan

>  <Num_Resolved_Atoms>  (304) 
nan

>  <Num_Not_Resolved_Atoms>  (304) 
nan

$$$$
CHEMBL219916
     RDKit          3D

  0  0  0  0  0  0  0  0  0  0999 V3000
M  V30 BEGIN CTAB
M  V30 COUNTS 54 58 0 0 0
M  V30 BEGIN ATOM
M  V30 1 O 2.962528 -2.990408 1.517336 0
M  V30 2 C 3.487109 -1.978547 0.951609 0
M  V30 3 N 4.293411 -2.095387 -0.104549 0
M  V30 4 C 4.659426 -0.844679 -0.438025 0
M  V30 5 C 5.471385 -0.327121 -1.426370 0
M  V30 6 C 5.643189 1.048101 -1.490858 0
M  V30 7 C 5.025558 1.897143 -0.597211 0
M  V30 8 C 4.213303 1.391033 0.392893 0
M  V30 9 C 4.037588 0.014432 0.462318 0
M  V30 10 N 3.292155 -0.701555 1.346575 0
M  V30 11 C 2.465194 -0.310007 2.452739 0
M  V30 12 C 1.044573 -0.086392 2.053559 0
M  V30 13 C 0.842135 0.983588 1.012650 0
M  V30 14 N -0.522305 1.116683 0.713867 0
M  V30 15 C -1.404382 1.641448 1.680726 0
M  V30 16 C -2.702849 0.861854 1.664972 0
M  V30 17 C -2.571445 -0.282462 0.736733 0
M  V30 18 N -3.567172 -1.285662 0.800660 0
M  V30 19 C -4.826232 -1.227317 1.329755 0
M  V30 20 O -5.338584 -0.215482 1.878629 0
M  V30 21 N -5.444778 -2.435058 1.172643 0
M  V30 22 C -4.568168 -3.244435 0.544977 0
M  V30 23 C -4.578244 -4.555144 0.107935 0
M  V30 24 C -3.511208 -5.161195 -0.527000 0
M  V30 25 Cl -3.571742 -6.830647 -1.065488 0
M  V30 26 C -2.354216 -4.454717 -0.756613 0
M  V30 27 C -2.312674 -3.141308 -0.331637 0
M  V30 28 C -3.403850 -2.539462 0.311663 0
M  V30 29 C -2.378528 0.341972 -0.641165 0
M  V30 30 C -0.975880 0.967717 -0.610430 0
M  V30 31 H 4.579010 -2.974035 -0.573563 0
M  V30 32 H 5.938475 -1.041312 -2.111339 0
M  V30 33 H 6.299502 1.343299 -2.302732 0
M  V30 34 H 5.208622 2.966863 -0.713140 0
M  V30 35 H 3.724200 2.033253 1.098048 0
M  V30 36 H 2.468223 -1.125922 3.198527 0
M  V30 37 H 2.905162 0.584521 2.932897 0
M  V30 38 H 0.459369 0.091993 2.966745 0
M  V30 39 H 0.674486 -1.088236 1.679220 0
M  V30 40 H 1.190745 1.944310 1.474891 0
M  V30 41 H 1.413433 0.780188 0.085186 0
M  V30 42 H -1.606045 2.744869 1.554191 0
M  V30 43 H -0.977204 1.486490 2.701385 0
M  V30 44 H -3.050718 0.612630 2.679950 0
M  V30 45 H -3.484247 1.560735 1.262594 0
M  V30 46 H -1.586502 -0.785071 0.947453 0
M  V30 47 H -6.394527 -2.710360 1.465126 0
M  V30 48 H -5.458185 -5.166480 0.258269 0
M  V30 49 H -1.486337 -4.857619 -1.242219 0
M  V30 50 H -1.393632 -2.560501 -0.506915 0
M  V30 51 H -2.436574 -0.359230 -1.466466 0
M  V30 52 H -3.159472 1.123694 -0.826288 0
M  V30 53 H -1.082574 1.958962 -1.115224 0
M  V30 54 H -0.259550 0.356523 -1.180788 0
M  V30 END ATOM
M  V30 BEGIN BOND
M  V30 1 2 1 2
M  V30 2 1 2 3
M  V30 3 1 3 4
M  V30 4 2 4 5
M  V30 5 1 5 6
M  V30 6 2 6 7
M  V30 7 1 7 8
M  V30 8 2 8 9
M  V30 9 1 9 10
M  V30 10 1 10 11
M  V30 11 1 11 12
M  V30 12 1 12 13
M  V30 13 1 13 14
M  V30 14 1 14 15
M  V30 15 1 15 16
M  V30 16 1 16 17
M  V30 17 1 17 18
M  V30 18 1 18 19
M  V30 19 2 19 20
M  V30 20 1 19 21
M  V30 21 1 21 22
M  V30 22 2 22 23
M  V30 23 1 23 24
M  V30 24 1 24 25
M  V30 25 2 24 26
M  V30 26 1 26 27
M  V30 27 2 27 28
M  V30 28 1 17 29
M  V30 29 1 29 30
M  V30 30 1 10 2
M  V30 31 1 30 14
M  V30 32 1 9 4
M  V30 33 1 28 18
M  V30 34 1 28 22
M  V30 35 1 3 31
M  V30 36 1 5 32
M  V30 37 1 6 33
M  V30 38 1 7 34
M  V30 39 1 8 35
M  V30 40 1 11 36
M  V30 41 1 11 37
M  V30 42 1 12 38
M  V30 43 1 12 39
M  V30 44 1 13 40
M  V30 45 1 13 41
M  V30 46 1 15 42
M  V30 47 1 15 43
M  V30 48 1 16 44
M  V30 49 1 16 45
M  V30 50 1 17 46
M  V30 51 1 21 47
M  V30 52 1 23 48
M  V30 53 1 26 49
M  V30 54 1 27 50
M  V30 55 1 29 51
M  V30 56 1 29 52
M  V30 57 1 30 53
M  V30 58 1 30 54
M  V30 END BOND
M  V30 END CTAB
M  END
>  <Dataset>  (305) 
OralDrugs

>  <Ligand_Instance>  (305) 
nan

>  <PDB_ID>  (305) 
nan

>  <Standardized_SMILES>  (305) 
O=c1[nH]c2ccccc2n1CCCN1CCC(n2c(=O)[nH]c3cc(Cl)ccc32)CC1

>  <Name>  (305) 
Domperidone

>  <Pocket>  (305) 
nan

>  <ATP_Site>  (305) 
nan

>  <Peripheral>  (305) 
nan

>  <Num_H_Atoms_ProtBoundConf>  (305) 
nan

>  <Num_Resolved_Atoms>  (305) 
nan

>  <Num_Not_Resolved_Atoms>  (305) 
nan

$$$$
CHEMBL502
     RDKit          3D

  0  0  0  0  0  0  0  0  0  0999 V3000
M  V30 BEGIN CTAB
M  V30 COUNTS 57 60 0 0 0
M  V30 BEGIN ATOM
M  V30 1 C 2.223432 -5.501301 -0.387549 0
M  V30 2 O 3.157805 -4.575433 0.086975 0
M  V30 3 C 3.005631 -3.195468 0.007588 0
M  V30 4 C 1.881777 -2.588106 -0.565030 0
M  V30 5 C 1.828941 -1.196067 -0.593904 0
M  V30 6 C 2.853560 -0.444235 -0.073282 0
M  V30 7 C 3.961192 -1.021300 0.491031 0
M  V30 8 C 4.017269 -2.402508 0.521282 0
M  V30 9 O 5.125332 -3.010283 1.085377 0
M  V30 10 C 6.172990 -2.212496 1.616852 0
M  V30 11 C 2.385155 0.908786 -0.312116 0
M  V30 12 O 2.940991 1.972450 0.119885 0
M  V30 13 C 1.128386 1.019782 -1.148969 0
M  V30 14 C 0.183669 1.863730 -0.415709 0
M  V30 15 C -1.145541 2.201865 -0.947401 0
M  V30 16 C -1.823924 3.089014 0.086894 0
M  V30 17 C -3.030867 2.461047 0.672861 0
M  V30 18 N -2.857270 1.065124 0.818222 0
M  V30 19 C -3.610902 0.405337 1.817465 0
M  V30 20 C -3.330684 -1.050993 1.840790 0
M  V30 21 C -4.101184 -1.909845 1.049752 0
M  V30 22 C -3.840365 -3.270174 1.071187 0
M  V30 23 C -2.819465 -3.763197 1.876230 0
M  V30 24 C -2.044884 -2.910445 2.669959 0
M  V30 25 C -2.315029 -1.542487 2.641179 0
M  V30 26 C -2.851225 0.412078 -0.463224 0
M  V30 27 C -2.027315 1.155251 -1.484481 0
M  V30 28 C 0.686505 -0.402713 -1.177181 0
M  V30 29 H 1.508463 -5.821460 0.393556 0
M  V30 30 H 2.794978 -6.395252 -0.748092 0
M  V30 31 H 1.635335 -5.167921 -1.257186 0
M  V30 32 H 1.088528 -3.224751 -0.968074 0
M  V30 33 H 4.712471 -0.360611 0.872328 0
M  V30 34 H 5.678362 -1.461530 2.293369 0
M  V30 35 H 6.848418 -2.792388 2.263481 0
M  V30 36 H 6.687441 -1.739969 0.766228 0
M  V30 37 H 1.504495 1.413638 -2.105279 0
M  V30 38 H 0.753004 2.807741 -0.142362 0
M  V30 39 H 0.058814 1.390338 0.610283 0
M  V30 40 H -0.939571 2.913351 -1.814084 0
M  V30 41 H -1.079431 3.425546 0.853718 0
M  V30 42 H -2.164555 4.073286 -0.360437 0
M  V30 43 H -3.373976 2.977132 1.588711 0
M  V30 44 H -3.867151 2.615600 -0.070774 0
M  V30 45 H -4.696368 0.529768 1.599935 0
M  V30 46 H -3.463152 0.773013 2.837767 0
M  V30 47 H -4.895705 -1.487815 0.429767 0
M  V30 48 H -4.455096 -3.912645 0.445780 0
M  V30 49 H -2.657003 -4.848188 1.853860 0
M  V30 50 H -1.253527 -3.324149 3.289161 0
M  V30 51 H -1.720379 -0.882453 3.252022 0
M  V30 52 H -2.506677 -0.629780 -0.321845 0
M  V30 53 H -3.910198 0.333858 -0.784537 0
M  V30 54 H -2.777315 1.637427 -2.187578 0
M  V30 55 H -1.560791 0.391830 -2.119303 0
M  V30 56 H 0.485557 -0.755247 -2.215115 0
M  V30 57 H -0.126938 -0.549534 -0.468896 0
M  V30 END ATOM
M  V30 BEGIN BOND
M  V30 1 1 1 2
M  V30 2 1 2 3
M  V30 3 2 3 4
M  V30 4 1 4 5
M  V30 5 2 5 6
M  V30 6 1 6 7
M  V30 7 2 7 8
M  V30 8 1 8 9
M  V30 9 1 9 10
M  V30 10 1 6 11
M  V30 11 2 11 12
M  V30 12 1 11 13
M  V30 13 1 13 14
M  V30 14 1 14 15
M  V30 15 1 15 16
M  V30 16 1 16 17
M  V30 17 1 17 18
M  V30 18 1 18 19
M  V30 19 1 19 20
M  V30 20 2 20 21
M  V30 21 1 21 22
M  V30 22 2 22 23
M  V30 23 1 23 24
M  V30 24 2 24 25
M  V30 25 1 18 26
M  V30 26 1 26 27
M  V30 27 1 13 28
M  V30 28 1 8 3
M  V30 29 1 27 15
M  V30 30 1 28 5
M  V30 31 1 25 20
M  V30 32 1 1 29
M  V30 33 1 1 30
M  V30 34 1 1 31
M  V30 35 1 4 32
M  V30 36 1 7 33
M  V30 37 1 10 34
M  V30 38 1 10 35
M  V30 39 1 10 36
M  V30 40 1 13 37
M  V30 41 1 14 38
M  V30 42 1 14 39
M  V30 43 1 15 40
M  V30 44 1 16 41
M  V30 45 1 16 42
M  V30 46 1 17 43
M  V30 47 1 17 44
M  V30 48 1 19 45
M  V30 49 1 19 46
M  V30 50 1 21 47
M  V30 51 1 22 48
M  V30 52 1 23 49
M  V30 53 1 24 50
M  V30 54 1 25 51
M  V30 55 1 26 52
M  V30 56 1 26 53
M  V30 57 1 27 54
M  V30 58 1 27 55
M  V30 59 1 28 56
M  V30 60 1 28 57
M  V30 END BOND
M  V30 END CTAB
M  END
>  <Dataset>  (306) 
OralDrugs

>  <Ligand_Instance>  (306) 
nan

>  <PDB_ID>  (306) 
nan

>  <Standardized_SMILES>  (306) 
COc1cc2c(cc1OC)C(=O)C(CC1CCN(Cc3ccccc3)CC1)C2

>  <Name>  (306) 
Donepezil

>  <Pocket>  (306) 
nan

>  <ATP_Site>  (306) 
nan

>  <Peripheral>  (306) 
nan

>  <Num_H_Atoms_ProtBoundConf>  (306) 
nan

>  <Num_Resolved_Atoms>  (306) 
nan

>  <Num_Not_Resolved_Atoms>  (306) 
nan

$$$$
CHEMBL2364608
     RDKit          3D

  0  0  0  0  0  0  0  0  0  0999 V3000
M  V30 BEGIN CTAB
M  V30 COUNTS 40 42 0 0 0
M  V30 BEGIN ATOM
M  V30 1 C -0.028378 -4.583222 1.676293 0
M  V30 2 N 0.859846 -4.713146 0.558257 0
M  V30 3 C 0.674371 -3.937934 -0.518832 0
M  V30 4 C -0.232987 -2.878034 -0.980184 0
M  V30 5 N 0.355179 -1.570142 -0.678076 0
M  V30 6 C 1.145137 -1.167002 -1.709126 0
M  V30 7 C 1.785772 0.028608 -1.608907 0
M  V30 8 C 1.627019 0.802789 -0.480150 0
M  V30 9 C 2.286415 2.111808 -0.338891 0
M  V30 10 F 3.080357 2.284493 -1.472633 0
M  V30 11 F 1.334387 3.128953 -0.423429 0
M  V30 12 F 3.034700 2.255078 0.796937 0
M  V30 13 C 0.834855 0.422634 0.580763 0
M  V30 14 O 0.540503 1.011973 1.771814 0
M  V30 15 C -0.408990 1.889420 2.151788 0
M  V30 16 C -1.700869 1.480162 2.473331 0
M  V30 17 C -2.719847 2.319851 2.870635 0
M  V30 18 Cl -4.338234 1.785023 3.270564 0
M  V30 19 C -2.489934 3.676118 2.972165 0
M  V30 20 C -1.238633 4.170178 2.673151 0
M  V30 21 C -0.963128 5.574882 2.767603 0
M  V30 22 N -0.734024 6.715915 2.862041 0
M  V30 23 C -0.285234 3.255807 2.285647 0
M  V30 24 C 0.205337 -0.813537 0.415792 0
M  V30 25 O -0.580885 -1.443113 1.196593 0
M  V30 26 N 1.658701 -4.302228 -1.382271 0
M  V30 27 N 2.392756 -5.254061 -0.832304 0
M  V30 28 C 1.908610 -5.527784 0.387176 0
M  V30 29 O 2.325497 -6.364956 1.220203 0
M  V30 30 H 0.367791 -3.902072 2.466618 0
M  V30 31 H -1.053962 -4.288165 1.415700 0
M  V30 32 H -0.131945 -5.602237 2.148196 0
M  V30 33 H -1.181049 -2.917716 -0.371796 0
M  V30 34 H -0.527638 -2.978973 -2.025969 0
M  V30 35 H 1.337250 -1.694989 -2.634688 0
M  V30 36 H 2.437020 0.424239 -2.390503 0
M  V30 37 H -2.034243 0.456304 2.445225 0
M  V30 38 H -3.260791 4.365593 3.279246 0
M  V30 39 H 0.687120 3.705584 2.073338 0
M  V30 40 H 3.235627 -5.774546 -1.205488 0
M  V30 END ATOM
M  V30 BEGIN BOND
M  V30 1 1 1 2
M  V30 2 1 2 3
M  V30 3 1 3 4
M  V30 4 1 4 5
M  V30 5 1 5 6
M  V30 6 2 6 7
M  V30 7 1 7 8
M  V30 8 1 8 9
M  V30 9 1 9 10
M  V30 10 1 9 11
M  V30 11 1 9 12
M  V30 12 2 8 13
M  V30 13 1 13 14
M  V30 14 1 14 15
M  V30 15 2 15 16
M  V30 16 1 16 17
M  V30 17 1 17 18
M  V30 18 2 17 19
M  V30 19 1 19 20
M  V30 20 1 20 21
M  V30 21 3 21 22
M  V30 22 2 20 23
M  V30 23 1 13 24
M  V30 24 2 24 25
M  V30 25 2 3 26
M  V30 26 1 26 27
M  V30 27 1 27 28
M  V30 28 2 28 29
M  V30 29 1 28 2
M  V30 30 1 24 5
M  V30 31 1 23 15
M  V30 32 1 1 30
M  V30 33 1 1 31
M  V30 34 1 1 32
M  V30 35 1 4 33
M  V30 36 1 4 34
M  V30 37 1 6 35
M  V30 38 1 7 36
M  V30 39 1 16 37
M  V30 40 1 19 38
M  V30 41 1 23 39
M  V30 42 1 27 40
M  V30 END BOND
M  V30 END CTAB
M  END
>  <Dataset>  (307) 
OralDrugs

>  <Ligand_Instance>  (307) 
nan

>  <PDB_ID>  (307) 
nan

>  <Standardized_SMILES>  (307) 
Cn1c(Cn2ccc(C(F)(F)F)c(Oc3cc(Cl)cc(C#N)c3)c2=O)n[nH]c1=O

>  <Name>  (307) 
Doravirine

>  <Pocket>  (307) 
nan

>  <ATP_Site>  (307) 
nan

>  <Peripheral>  (307) 
nan

>  <Num_H_Atoms_ProtBoundConf>  (307) 
nan

>  <Num_Resolved_Atoms>  (307) 
nan

>  <Num_Not_Resolved_Atoms>  (307) 
nan

$$$$
CHEMBL707
     RDKit          3D

  0  0  0  0  0  0  0  0  0  0999 V3000
M  V30 BEGIN CTAB
M  V30 COUNTS 58 62 0 0 0
M  V30 BEGIN ATOM
M  V30 1 C -0.291188 -4.216624 5.347081 0
M  V30 2 O -0.769882 -4.925790 4.246118 0
M  V30 3 C -0.454082 -4.642303 2.931322 0
M  V30 4 C 0.399261 -3.576790 2.694742 0
M  V30 5 C 0.710556 -3.298768 1.382757 0
M  V30 6 N 1.530126 -2.288604 1.008425 0
M  V30 7 C 1.814571 -2.042899 -0.283749 0
M  V30 8 N 2.680699 -0.971501 -0.635465 0
M  V30 9 C 3.323267 -0.075587 0.287016 0
M  V30 10 C 3.088529 1.376026 -0.071901 0
M  V30 11 N 2.121826 1.407648 -1.180172 0
M  V30 12 C 0.821755 1.907118 -1.316891 0
M  V30 13 O -0.135405 2.031294 -2.135112 0
M  V30 14 C -0.097347 2.601127 -0.409311 0
M  V30 15 C 0.449650 3.986058 -0.046583 0
M  V30 16 O -0.513723 4.620250 0.805718 0
M  V30 17 C -1.857342 4.444585 0.524386 0
M  V30 18 C -2.739701 5.209868 1.270793 0
M  V30 19 C -4.087710 5.055252 1.011436 0
M  V30 20 C -4.557064 4.177149 0.049603 0
M  V30 21 C -3.653517 3.426916 -0.679394 0
M  V30 22 C -2.303136 3.565201 -0.437131 0
M  V30 23 O -1.315980 2.868046 -1.104034 0
M  V30 24 C 2.679442 0.775732 -2.360865 0
M  V30 25 C 3.021714 -0.652641 -1.984829 0
M  V30 26 N 1.306983 -2.780098 -1.288285 0
M  V30 27 C 0.468904 -3.822161 -1.005891 0
M  V30 28 N -0.092593 -4.629923 -2.031227 0
M  V30 29 C 0.194951 -4.050769 0.327355 0
M  V30 30 C -0.653226 -5.103569 0.631967 0
M  V30 31 C -0.995521 -5.422297 1.930503 0
M  V30 32 O -1.839037 -6.464083 2.291914 0
M  V30 33 C -2.424974 -7.299282 1.310315 0
M  V30 34 H -0.763818 -3.193762 5.418317 0
M  V30 35 H -0.620117 -4.764985 6.269928 0
M  V30 36 H 0.798415 -4.125399 5.418081 0
M  V30 37 H 0.825857 -2.962705 3.477789 0
M  V30 38 H 2.987731 -0.218765 1.338100 0
M  V30 39 H 4.408203 -0.311115 0.282864 0
M  V30 40 H 2.733095 1.972799 0.764043 0
M  V30 41 H 4.022485 1.828562 -0.462616 0
M  V30 42 H -0.330821 2.067989 0.510071 0
M  V30 43 H 1.378777 3.935904 0.534036 0
M  V30 44 H 0.513660 4.612307 -0.955428 0
M  V30 45 H -2.379912 5.897063 2.022975 0
M  V30 46 H -4.764291 5.668914 1.612183 0
M  V30 47 H -5.618567 4.075014 -0.133932 0
M  V30 48 H -3.961240 2.719823 -1.448944 0
M  V30 49 H 2.053873 0.836245 -3.251489 0
M  V30 50 H 3.653681 1.308279 -2.560440 0
M  V30 51 H 4.101951 -0.872940 -2.212374 0
M  V30 52 H 2.425154 -1.307380 -2.661215 0
M  V30 53 H -0.087579 -5.631247 -2.309499 0
M  V30 54 H -0.708400 -4.390266 -2.835152 0
M  V30 55 H -1.061262 -5.694656 -0.158520 0
M  V30 56 H -2.704141 -6.769745 0.394300 0
M  V30 57 H -1.675284 -8.082097 1.027366 0
M  V30 58 H -3.313649 -7.824266 1.726206 0
M  V30 END ATOM
M  V30 BEGIN BOND
M  V30 1 1 1 2
M  V30 2 1 2 3
M  V30 3 2 3 4
M  V30 4 1 4 5
M  V30 5 2 5 6
M  V30 6 1 6 7
M  V30 7 1 7 8
M  V30 8 1 8 9
M  V30 9 1 9 10
M  V30 10 1 10 11
M  V30 11 1 11 12
M  V30 12 2 12 13
M  V30 13 1 12 14
M  V30 14 1 14 15
M  V30 15 1 15 16
M  V30 16 1 16 17
M  V30 17 2 17 18
M  V30 18 1 18 19
M  V30 19 2 19 20
M  V30 20 1 20 21
M  V30 21 2 21 22
M  V30 22 1 22 23
M  V30 23 1 11 24
M  V30 24 1 24 25
M  V30 25 2 7 26
M  V30 26 1 26 27
M  V30 27 1 27 28
M  V30 28 2 27 29
M  V30 29 1 29 30
M  V30 30 2 30 31
M  V30 31 1 31 32
M  V30 32 1 32 33
M  V30 33 1 31 3
M  V30 34 1 29 5
M  V30 35 1 25 8
M  V30 36 1 23 14
M  V30 37 1 22 17
M  V30 38 1 1 34
M  V30 39 1 1 35
M  V30 40 1 1 36
M  V30 41 1 4 37
M  V30 42 1 9 38
M  V30 43 1 9 39
M  V30 44 1 10 40
M  V30 45 1 10 41
M  V30 46 1 14 42
M  V30 47 1 15 43
M  V30 48 1 15 44
M  V30 49 1 18 45
M  V30 50 1 19 46
M  V30 51 1 20 47
M  V30 52 1 21 48
M  V30 53 1 24 49
M  V30 54 1 24 50
M  V30 55 1 25 51
M  V30 56 1 25 52
M  V30 57 1 28 53
M  V30 58 1 28 54
M  V30 59 1 30 55
M  V30 60 1 33 56
M  V30 61 1 33 57
M  V30 62 1 33 58
M  V30 END BOND
M  V30 END CTAB
M  END
>  <Dataset>  (308) 
OralDrugs

>  <Ligand_Instance>  (308) 
nan

>  <PDB_ID>  (308) 
nan

>  <Standardized_SMILES>  (308) 
COc1cc2nc(N3CCN(C(=O)C4COc5ccccc5O4)CC3)nc(N)c2cc1OC

>  <Name>  (308) 
Doxazosin

>  <Pocket>  (308) 
nan

>  <ATP_Site>  (308) 
nan

>  <Peripheral>  (308) 
nan

>  <Num_H_Atoms_ProtBoundConf>  (308) 
nan

>  <Num_Resolved_Atoms>  (308) 
nan

>  <Num_Not_Resolved_Atoms>  (308) 
nan

$$$$
CHEMBL1628227
     RDKit          3D

  0  0  0  0  0  0  0  0  0  0999 V3000
M  V30 BEGIN CTAB
M  V30 COUNTS 42 44 0 0 0
M  V30 BEGIN ATOM
M  V30 1 C -4.019574 -2.613035 2.371834 0
M  V30 2 N -2.928404 -2.707746 1.420630 0
M  V30 3 C -2.249844 -3.941676 1.644597 0
M  V30 4 C -2.122352 -1.538917 1.368828 0
M  V30 5 C -1.031424 -1.795036 0.336710 0
M  V30 6 C -0.096960 -0.642752 0.174969 0
M  V30 7 C 1.088425 -0.038906 0.170550 0
M  V30 8 C 1.139237 1.421734 -0.164000 0
M  V30 9 C 0.212521 1.671773 -1.159714 0
M  V30 10 C 0.146258 2.992371 -1.545524 0
M  V30 11 C 0.970175 3.953667 -0.947365 0
M  V30 12 C 1.884180 3.611560 0.056582 0
M  V30 13 C 2.002878 2.288735 0.496558 0
M  V30 14 C 3.004834 2.146369 1.545052 0
M  V30 15 O 3.584626 0.911013 1.747622 0
M  V30 16 C 3.386691 -0.363346 1.236623 0
M  V30 17 C 4.383869 -1.285717 1.458260 0
M  V30 18 C 4.258448 -2.588106 0.973845 0
M  V30 19 C 3.141109 -3.013134 0.255452 0
M  V30 20 C 2.142245 -2.130483 0.019770 0
M  V30 21 C 2.298193 -0.846928 0.515472 0
M  V30 22 H -4.114583 -1.610605 2.822081 0
M  V30 23 H -3.969928 -3.388627 3.170256 0
M  V30 24 H -4.938909 -2.886303 1.775037 0
M  V30 25 H -1.848573 -4.410986 0.723592 0
M  V30 26 H -1.461537 -3.884008 2.444920 0
M  V30 27 H -2.994329 -4.676362 2.022097 0
M  V30 28 H -1.726442 -1.329497 2.364737 0
M  V30 29 H -2.779576 -0.694498 1.075998 0
M  V30 30 H -1.531546 -2.122872 -0.591385 0
M  V30 31 H -0.559529 -2.720263 0.712221 0
M  V30 32 H -0.923616 0.027043 -0.039381 0
M  V30 33 H -0.380150 0.872516 -1.583610 0
M  V30 34 H -0.551625 3.278346 -2.317965 0
M  V30 35 H 0.899040 5.002131 -1.272437 0
M  V30 36 H 2.483320 4.412412 0.466438 0
M  V30 37 H 3.849239 2.849188 1.267699 0
M  V30 38 H 2.597743 2.606880 2.481312 0
M  V30 39 H 5.246808 -0.955012 2.013408 0
M  V30 40 H 5.070413 -3.290938 1.170326 0
M  V30 41 H 3.060576 -4.017530 -0.109853 0
M  V30 42 H 1.242965 -2.345007 -0.540530 0
M  V30 END ATOM
M  V30 BEGIN BOND
M  V30 1 1 1 2
M  V30 2 1 2 3
M  V30 3 1 2 4
M  V30 4 1 4 5
M  V30 5 1 5 6
M  V30 6 2 6 7 CFG=2
M  V30 7 1 7 8
M  V30 8 2 8 9
M  V30 9 1 9 10
M  V30 10 2 10 11
M  V30 11 1 11 12
M  V30 12 2 12 13
M  V30 13 1 13 14
M  V30 14 1 14 15
M  V30 15 1 15 16
M  V30 16 2 16 17
M  V30 17 1 17 18
M  V30 18 2 18 19
M  V30 19 1 19 20
M  V30 20 2 20 21
M  V30 21 1 21 7
M  V30 22 1 13 8
M  V30 23 1 21 16
M  V30 24 1 1 22
M  V30 25 1 1 23
M  V30 26 1 1 24
M  V30 27 1 3 25
M  V30 28 1 3 26
M  V30 29 1 3 27
M  V30 30 1 4 28
M  V30 31 1 4 29
M  V30 32 1 5 30
M  V30 33 1 5 31
M  V30 34 1 6 32
M  V30 35 1 9 33
M  V30 36 1 10 34
M  V30 37 1 11 35
M  V30 38 1 12 36
M  V30 39 1 14 37
M  V30 40 1 14 38
M  V30 41 1 17 39
M  V30 42 1 18 40
M  V30 43 1 19 41
M  V30 44 1 20 42
M  V30 END BOND
M  V30 END CTAB
M  END
>  <Dataset>  (309) 
OralDrugs

>  <Ligand_Instance>  (309) 
nan

>  <PDB_ID>  (309) 
nan

>  <Standardized_SMILES>  (309) 
CN(C)CCC=C1c2ccccc2COc2ccccc21

>  <Name>  (309) 
Doxepin

>  <Pocket>  (309) 
nan

>  <ATP_Site>  (309) 
nan

>  <Peripheral>  (309) 
nan

>  <Num_H_Atoms_ProtBoundConf>  (309) 
nan

>  <Num_Resolved_Atoms>  (309) 
nan

>  <Num_Not_Resolved_Atoms>  (309) 
nan

$$$$
CHEMBL1200699
     RDKit          3D

  0  0  0  0  0  0  0  0  0  0999 V3000
M  V30 BEGIN CTAB
M  V30 COUNTS 56 59 0 0 0
M  V30 BEGIN ATOM
M  V30 1 C 2.276119 1.702264 -1.639482 0
M  V30 2 C 2.033303 0.398640 -0.904692 0 CFG=1
M  V30 3 C 3.190235 0.117968 -0.040137 0
M  V30 4 C 4.348341 0.204059 -0.827392 0
M  V30 5 C 5.624639 -0.014083 -0.292510 0
M  V30 6 C 5.781588 -0.324103 1.042115 0
M  V30 7 C 4.645703 -0.409990 1.820808 0
M  V30 8 O 4.631575 -0.711307 3.175754 0
M  V30 9 C 3.412014 -0.194015 1.280904 0
M  V30 10 C 2.173871 -0.268777 2.048299 0
M  V30 11 O 2.194605 -0.543236 3.270837 0
M  V30 12 C 0.965088 -0.002596 1.278059 0
M  V30 13 C -0.152983 -0.172600 2.015026 0
M  V30 14 O -0.124625 -0.556842 3.350438 0
M  V30 15 C -1.454402 0.077340 1.311090 0 CFG=2
M  V30 16 O -1.595701 1.448056 1.016016 0
M  V30 17 C -2.529208 -0.251743 2.248548 0
M  V30 18 O -2.625326 0.446174 3.290239 0
M  V30 19 C -3.478638 -1.334534 2.033370 0
M  V30 20 C -4.689438 -1.520993 2.821627 0
M  V30 21 N -4.940788 -0.579206 3.857572 0
M  V30 22 O -5.438219 -2.507074 2.534407 0
M  V30 23 C -3.151449 -2.151071 1.049351 0
M  V30 24 O -4.014120 -3.222746 0.775656 0
M  V30 25 C -1.961704 -2.108912 0.149735 0 CFG=1
M  V30 26 N -2.240984 -2.629762 -1.143198 0
M  V30 27 C -3.199100 -2.001205 -1.948059 0
M  V30 28 C -1.240192 -3.315515 -1.843443 0
M  V30 29 C -1.510018 -0.669655 0.007332 0 CFG=2
M  V30 30 C -0.237757 -0.560232 -0.744410 0 CFG=1
M  V30 31 O -0.455560 -0.032026 -2.041475 0
M  V30 32 C 0.773624 0.412851 -0.123810 0 CFG=2
M  V30 33 H 2.753385 2.407410 -0.956432 0
M  V30 34 H 1.305823 2.143204 -2.000072 0
M  V30 35 H 2.849746 1.527880 -2.577508 0
M  V30 36 H 2.032114 -0.424934 -1.684794 0
M  V30 37 H 4.449941 0.435709 -1.900542 0
M  V30 38 H 6.553785 0.036413 -0.840919 0
M  V30 39 H 6.714617 -0.510298 1.552855 0
M  V30 40 H 4.540497 -1.658440 3.523169 0
M  V30 41 H -0.339452 -1.513391 3.632435 0
M  V30 42 H -1.130425 1.906407 1.761182 0
M  V30 43 H -4.588330 -0.949918 4.771322 0
M  V30 44 H -5.409082 0.350873 3.733470 0
M  V30 45 H -4.888872 -2.992360 0.305141 0
M  V30 46 H -1.166310 -2.682561 0.636694 0
M  V30 47 H -3.820760 -1.233352 -1.434828 0
M  V30 48 H -2.684774 -1.447928 -2.788087 0
M  V30 49 H -3.858444 -2.728380 -2.510249 0
M  V30 50 H -0.813029 -2.671941 -2.654842 0
M  V30 51 H -0.437386 -3.741674 -1.199095 0
M  V30 52 H -1.635007 -4.209318 -2.409971 0
M  V30 53 H -2.316550 -0.153155 -0.591625 0
M  V30 54 H 0.315317 -1.498485 -0.896936 0
M  V30 55 H -1.184800 0.618483 -1.980605 0
M  V30 56 H 0.371007 1.458764 -0.195493 0
M  V30 END ATOM
M  V30 BEGIN BOND
M  V30 1 1 1 2
M  V30 2 1 2 3
M  V30 3 2 3 4
M  V30 4 1 4 5
M  V30 5 2 5 6
M  V30 6 1 6 7
M  V30 7 1 7 8
M  V30 8 2 7 9
M  V30 9 1 9 10
M  V30 10 2 10 11
M  V30 11 1 10 12
M  V30 12 2 12 13
M  V30 13 1 13 14
M  V30 14 1 13 15
M  V30 15 1 15 16 CFG=3
M  V30 16 1 15 17
M  V30 17 2 17 18
M  V30 18 1 17 19
M  V30 19 1 19 20
M  V30 20 1 20 21
M  V30 21 2 20 22
M  V30 22 2 19 23
M  V30 23 1 23 24
M  V30 24 1 23 25
M  V30 25 1 25 26
M  V30 26 1 26 27
M  V30 27 1 26 28
M  V30 28 1 25 29
M  V30 29 1 29 30
M  V30 30 1 30 31
M  V30 31 1 30 32
M  V30 32 1 32 2
M  V30 33 1 9 3
M  V30 34 1 32 12
M  V30 35 1 29 15
M  V30 36 1 1 33
M  V30 37 1 1 34
M  V30 38 1 1 35
M  V30 39 1 2 36 CFG=3
M  V30 40 1 4 37
M  V30 41 1 5 38
M  V30 42 1 6 39
M  V30 43 1 8 40
M  V30 44 1 14 41
M  V30 45 1 16 42
M  V30 46 1 21 43
M  V30 47 1 21 44
M  V30 48 1 24 45
M  V30 49 1 25 46 CFG=1
M  V30 50 1 27 47
M  V30 51 1 27 48
M  V30 52 1 27 49
M  V30 53 1 28 50
M  V30 54 1 28 51
M  V30 55 1 28 52
M  V30 56 1 29 53 CFG=3
M  V30 57 1 30 54 CFG=3
M  V30 58 1 31 55
M  V30 59 1 32 56 CFG=1
M  V30 END BOND
M  V30 END CTAB
M  END
>  <Dataset>  (310) 
OralDrugs

>  <Ligand_Instance>  (310) 
nan

>  <PDB_ID>  (310) 
nan

>  <Standardized_SMILES>  (310) 
C[C@H]1c2cccc(O)c2C(=O)C2=C(O)[C@]3(O)C(=O)C(C(N)=O)=C(O)[C@@H](N(C)C)[C@@H]3[C@@H](O)[C@@H]21

>  <Name>  (310) 
Doxycycline

>  <Pocket>  (310) 
nan

>  <ATP_Site>  (310) 
nan

>  <Peripheral>  (310) 
nan

>  <Num_H_Atoms_ProtBoundConf>  (310) 
nan

>  <Num_Resolved_Atoms>  (310) 
nan

>  <Num_Not_Resolved_Atoms>  (310) 
nan

$$$$
CHEMBL1004
     RDKit          3D

  0  0  0  0  0  0  0  0  0  0999 V3000
M  V30 BEGIN CTAB
M  V30 COUNTS 42 43 0 0 0
M  V30 BEGIN ATOM
M  V30 1 C -2.191476 -1.416695 3.236718 0
M  V30 2 N -0.984272 -2.069344 3.645716 0
M  V30 3 C -0.831586 -3.405238 3.140970 0
M  V30 4 C 0.189569 -1.258501 3.533265 0
M  V30 5 C 0.571675 -0.953798 2.103998 0
M  V30 6 O -0.411077 -0.279536 1.421603 0
M  V30 7 C -0.052295 0.039702 0.139726 0
M  V30 8 C -1.257314 0.707099 -0.545733 0
M  V30 9 C 0.988258 1.136366 0.121399 0
M  V30 10 C 1.758231 1.388768 -0.993322 0
M  V30 11 C 2.687272 2.417226 -0.968500 0
M  V30 12 C 2.875158 3.207554 0.137414 0
M  V30 13 C 2.112063 2.968265 1.261537 0
M  V30 14 C 1.192080 1.939553 1.218107 0
M  V30 15 C 0.392930 -1.063158 -0.707541 0
M  V30 16 C 1.666086 -1.617706 -0.645574 0
M  V30 17 C 2.095183 -2.670970 -1.443162 0
M  V30 18 C 1.176002 -3.171105 -2.339388 0
M  V30 19 C -0.096872 -2.618134 -2.403620 0
M  V30 20 N -0.451094 -1.600513 -1.604161 0
M  V30 21 H -2.096154 -0.337843 3.494221 0
M  V30 22 H -3.051383 -1.799412 3.825117 0
M  V30 23 H -2.422497 -1.581965 2.150941 0
M  V30 24 H 0.017386 -3.870039 3.700955 0
M  V30 25 H -1.741652 -3.962071 3.447449 0
M  V30 26 H -0.672803 -3.479269 2.051821 0
M  V30 27 H 1.028339 -1.825618 3.990530 0
M  V30 28 H 0.060625 -0.342479 4.111781 0
M  V30 29 H 0.732625 -1.937987 1.596452 0
M  V30 30 H 1.485336 -0.344013 2.128349 0
M  V30 31 H -2.144893 0.117628 -0.279731 0
M  V30 32 H -1.103005 0.699187 -1.634442 0
M  V30 33 H -1.351720 1.755850 -0.192046 0
M  V30 34 H 1.589497 0.751829 -1.850961 0
M  V30 35 H 3.293291 2.601539 -1.868364 0
M  V30 36 H 3.599891 4.017348 0.168205 0
M  V30 37 H 2.268064 3.597643 2.127664 0
M  V30 38 H 0.633249 1.834438 2.142654 0
M  V30 39 H 2.401388 -1.221354 0.057699 0
M  V30 40 H 3.106220 -3.055509 -1.343539 0
M  V30 41 H 1.525512 -3.999074 -2.960421 0
M  V30 42 H -0.720946 -3.091212 -3.142072 0
M  V30 END ATOM
M  V30 BEGIN BOND
M  V30 1 1 1 2
M  V30 2 1 2 3
M  V30 3 1 2 4
M  V30 4 1 4 5
M  V30 5 1 5 6
M  V30 6 1 6 7
M  V30 7 1 7 8
M  V30 8 1 7 9
M  V30 9 2 9 10
M  V30 10 1 10 11
M  V30 11 2 11 12
M  V30 12 1 12 13
M  V30 13 2 13 14
M  V30 14 1 7 15
M  V30 15 2 15 16
M  V30 16 1 16 17
M  V30 17 2 17 18
M  V30 18 1 18 19
M  V30 19 2 19 20
M  V30 20 1 14 9
M  V30 21 1 20 15
M  V30 22 1 1 21
M  V30 23 1 1 22
M  V30 24 1 1 23
M  V30 25 1 3 24
M  V30 26 1 3 25
M  V30 27 1 3 26
M  V30 28 1 4 27
M  V30 29 1 4 28
M  V30 30 1 5 29
M  V30 31 1 5 30
M  V30 32 1 8 31
M  V30 33 1 8 32
M  V30 34 1 8 33
M  V30 35 1 10 34
M  V30 36 1 11 35
M  V30 37 1 12 36
M  V30 38 1 13 37
M  V30 39 1 14 38
M  V30 40 1 16 39
M  V30 41 1 17 40
M  V30 42 1 18 41
M  V30 43 1 19 42
M  V30 END BOND
M  V30 END CTAB
M  END
>  <Dataset>  (311) 
OralDrugs

>  <Ligand_Instance>  (311) 
nan

>  <PDB_ID>  (311) 
nan

>  <Standardized_SMILES>  (311) 
CN(C)CCOC(C)(c1ccccc1)c1ccccn1

>  <Name>  (311) 
Doxylamine

>  <Pocket>  (311) 
nan

>  <ATP_Site>  (311) 
nan

>  <Peripheral>  (311) 
nan

>  <Num_H_Atoms_ProtBoundConf>  (311) 
nan

>  <Num_Resolved_Atoms>  (311) 
nan

>  <Num_Not_Resolved_Atoms>  (311) 
nan

$$$$
CHEMBL465
     RDKit          3D

  0  0  0  0  0  0  0  0  0  0999 V3000
M  V30 BEGIN CTAB
M  V30 COUNTS 53 55 0 0 0
M  V30 BEGIN ATOM
M  V30 1 C 2.467921 -5.180347 3.416203 0
M  V30 2 C 3.267310 -4.787179 2.187983 0
M  V30 3 C 3.158909 -3.286929 1.934784 0
M  V30 4 C 3.962495 -2.960722 0.719136 0
M  V30 5 C 3.901876 -1.462196 0.399761 0
M  V30 6 C 2.497234 -1.043721 0.152061 0
M  V30 7 C 1.967880 -1.088025 -1.122179 0
M  V30 8 C 0.658577 -0.689679 -1.304944 0
M  V30 9 O 0.151404 -0.743993 -2.595133 0
M  V30 10 C -0.174915 -0.247081 -0.316460 0
M  V30 11 C 0.404044 -0.219091 0.957581 0
M  V30 12 C 1.707921 -0.605939 1.197127 0
M  V30 13 O -0.319333 0.203398 2.039748 0
M  V30 14 C -1.517352 0.935656 1.935908 0
M  V30 15 C -1.226096 2.303012 2.555161 0
M  V30 16 C -2.503315 0.270242 2.868932 0
M  V30 17 C -2.019334 1.156235 0.561310 0 CFG=2
M  V30 18 C -3.551794 1.104258 0.520645 0
M  V30 19 C -4.038764 0.759742 -0.864815 0
M  V30 20 C -3.121843 1.121635 -1.949624 0
M  V30 21 C -3.662715 1.781647 -3.170234 0
M  V30 22 C -1.816266 0.840930 -1.798834 0
M  V30 23 C -1.566288 0.181487 -0.479881 0 CFG=1
M  V30 24 H 2.427568 -4.370333 4.167149 0
M  V30 25 H 2.967098 -6.041952 3.878843 0
M  V30 26 H 1.429368 -5.520414 3.158570 0
M  V30 27 H 2.810940 -5.341409 1.345725 0
M  V30 28 H 4.335844 -5.013470 2.322077 0
M  V30 29 H 3.440911 -2.706759 2.826425 0
M  V30 30 H 2.081043 -3.102848 1.745734 0
M  V30 31 H 3.468282 -3.458108 -0.148707 0
M  V30 32 H 4.992965 -3.306542 0.757477 0
M  V30 33 H 4.235759 -0.962485 1.329208 0
M  V30 34 H 4.605944 -1.192415 -0.385283 0
M  V30 35 H 2.565853 -1.428510 -1.965494 0
M  V30 36 H 0.685619 -0.236127 -3.300302 0
M  V30 37 H 2.132383 -0.574041 2.197708 0
M  V30 38 H -0.277824 2.319880 3.115210 0
M  V30 39 H -2.028246 2.626312 3.244285 0
M  V30 40 H -1.102295 3.064704 1.734130 0
M  V30 41 H -3.418756 0.850236 3.052590 0
M  V30 42 H -1.987567 0.245565 3.873758 0
M  V30 43 H -2.640466 -0.762183 2.541854 0
M  V30 44 H -1.760979 2.185096 0.198133 0
M  V30 45 H -3.988333 2.038475 0.920626 0
M  V30 46 H -3.829973 0.220014 1.156419 0
M  V30 47 H -5.024197 1.269315 -0.973162 0
M  V30 48 H -4.248939 -0.340903 -0.986853 0
M  V30 49 H -4.258707 0.998570 -3.702725 0
M  V30 50 H -4.320524 2.625659 -2.920033 0
M  V30 51 H -2.860871 2.110900 -3.856053 0
M  V30 52 H -1.212359 1.152780 -2.669850 0
M  V30 53 H -2.261033 -0.706329 -0.434088 0
M  V30 END ATOM
M  V30 BEGIN BOND
M  V30 1 1 1 2
M  V30 2 1 2 3
M  V30 3 1 3 4
M  V30 4 1 4 5
M  V30 5 1 5 6
M  V30 6 2 6 7
M  V30 7 1 7 8
M  V30 8 1 8 9
M  V30 9 2 8 10
M  V30 10 1 10 11
M  V30 11 2 11 12
M  V30 12 1 11 13
M  V30 13 1 13 14
M  V30 14 1 14 15
M  V30 15 1 14 16
M  V30 16 1 14 17
M  V30 17 1 17 18
M  V30 18 1 18 19
M  V30 19 1 19 20
M  V30 20 1 20 21
M  V30 21 2 20 22
M  V30 22 1 22 23
M  V30 23 1 12 6
M  V30 24 1 23 17
M  V30 25 1 23 10
M  V30 26 1 1 24
M  V30 27 1 1 25
M  V30 28 1 1 26
M  V30 29 1 2 27
M  V30 30 1 2 28
M  V30 31 1 3 29
M  V30 32 1 3 30
M  V30 33 1 4 31
M  V30 34 1 4 32
M  V30 35 1 5 33
M  V30 36 1 5 34
M  V30 37 1 7 35
M  V30 38 1 9 36
M  V30 39 1 12 37
M  V30 40 1 15 38
M  V30 41 1 15 39
M  V30 42 1 15 40
M  V30 43 1 16 41
M  V30 44 1 16 42
M  V30 45 1 16 43
M  V30 46 1 17 44 CFG=3
M  V30 47 1 18 45
M  V30 48 1 18 46
M  V30 49 1 19 47
M  V30 50 1 19 48
M  V30 51 1 21 49
M  V30 52 1 21 50
M  V30 53 1 21 51
M  V30 54 1 22 52
M  V30 55 1 23 53 CFG=3
M  V30 END BOND
M  V30 END CTAB
M  END
>  <Dataset>  (312) 
OralDrugs

>  <Ligand_Instance>  (312) 
nan

>  <PDB_ID>  (312) 
nan

>  <Standardized_SMILES>  (312) 
CCCCCc1cc(O)c2c(c1)OC(C)(C)[C@@H]1CCC(C)=C[C@@H]21

>  <Name>  (312) 
Dronabinol

>  <Pocket>  (312) 
nan

>  <ATP_Site>  (312) 
nan

>  <Peripheral>  (312) 
nan

>  <Num_H_Atoms_ProtBoundConf>  (312) 
nan

>  <Num_Resolved_Atoms>  (312) 
nan

>  <Num_Not_Resolved_Atoms>  (312) 
nan

$$$$
CHEMBL184412
     RDKit          3D

  0  0  0  0  0  0  0  0  0  0999 V3000
M  V30 BEGIN CTAB
M  V30 COUNTS 83 85 0 0 0
M  V30 BEGIN ATOM
M  V30 1 C -2.280713 -8.424982 1.589981 0
M  V30 2 C -2.218648 -8.377956 0.052801 0
M  V30 3 C -1.238719 -7.298582 -0.320855 0
M  V30 4 C -1.077411 -7.133541 -1.807651 0
M  V30 5 C -0.039189 -6.061327 -2.070470 0
M  V30 6 O 1.195180 -6.240794 -2.472689 0
M  V30 7 C 1.840498 -5.103337 -2.605282 0
M  V30 8 C 3.149018 -5.029010 -3.020063 0
M  V30 9 C 3.626299 -3.705617 -3.095923 0
M  V30 10 C 2.844424 -2.618996 -2.785185 0
M  V30 11 N 3.354353 -1.294464 -2.891380 0
M  V30 12 S 3.207018 0.103023 -1.932575 0
M  V30 13 C 1.503554 0.631976 -1.809041 0
M  V30 14 O 3.768863 -0.011744 -0.558779 0
M  V30 15 O 3.919820 1.288547 -2.595115 0
M  V30 16 C 1.532760 -2.800423 -2.374988 0
M  V30 17 C 1.015950 -4.055651 -2.276755 0
M  V30 18 C -0.182564 -4.673614 -1.935127 0
M  V30 19 C -1.462241 -4.015478 -1.555429 0
M  V30 20 O -2.400830 -4.444522 -2.273415 0
M  V30 21 C -1.540943 -3.022295 -0.461646 0
M  V30 22 C -0.681237 -2.256275 0.275608 0
M  V30 23 C -1.079480 -1.374980 1.223649 0
M  V30 24 C -2.385475 -1.152058 1.552893 0
M  V30 25 O -2.826311 -0.253458 2.490406 0
M  V30 26 C -1.958832 0.650206 3.159512 0
M  V30 27 C -1.450536 1.679215 2.135180 0
M  V30 28 C -0.535186 2.660680 2.783446 0
M  V30 29 N -0.052671 3.657811 1.796413 0
M  V30 30 C -1.156033 4.479683 1.374885 0
M  V30 31 C -0.781017 5.562038 0.416191 0
M  V30 32 C -2.079638 6.296607 -0.004510 0
M  V30 33 C -1.674460 7.387251 -0.974516 0
M  V30 34 C 0.960069 4.468587 2.388978 0
M  V30 35 C 2.265308 3.770624 2.693349 0
M  V30 36 C 2.928608 3.223188 1.452638 0
M  V30 37 C 4.229436 2.552667 1.843231 0
M  V30 38 C -3.315439 -1.904822 0.844598 0
M  V30 39 C -2.897687 -2.812022 -0.134703 0
M  V30 40 H -3.120001 -7.801718 1.908544 0
M  V30 41 H -2.400501 -9.491626 1.858946 0
M  V30 42 H -1.334697 -7.998534 1.986719 0
M  V30 43 H -1.921817 -9.362781 -0.367998 0
M  V30 44 H -3.236511 -8.191008 -0.305264 0
M  V30 45 H -0.246832 -7.528469 0.109496 0
M  V30 46 H -1.660381 -6.353304 0.127267 0
M  V30 47 H -0.640729 -8.084367 -2.199220 0
M  V30 48 H -2.004563 -6.948647 -2.356065 0
M  V30 49 H 3.791967 -5.860147 -3.270108 0
M  V30 50 H 4.658751 -3.585832 -3.418275 0
M  V30 51 H 3.942210 -1.213431 -3.770748 0
M  V30 52 H 0.944259 0.403682 -2.765401 0
M  V30 53 H 1.005768 0.197772 -0.925525 0
M  V30 54 H 1.434795 1.743344 -1.689615 0
M  V30 55 H 0.844960 -1.991202 -2.136875 0
M  V30 56 H 0.317919 -2.481033 0.028594 0
M  V30 57 H -0.254816 -0.897636 1.713129 0
M  V30 58 H -1.022254 0.060996 3.395986 0
M  V30 59 H -2.325935 1.073264 4.075586 0
M  V30 60 H -1.031673 1.143198 1.289991 0
M  V30 61 H -2.394139 2.201226 1.746773 0
M  V30 62 H 0.351787 2.199478 3.231902 0
M  V30 63 H -1.052491 3.194950 3.618209 0
M  V30 64 H -1.602211 5.024569 2.273705 0
M  V30 65 H -2.026858 3.894141 0.995293 0
M  V30 66 H -0.157196 6.324059 0.959632 0
M  V30 67 H -0.327266 5.218638 -0.520126 0
M  V30 68 H -2.585282 6.699273 0.888626 0
M  V30 69 H -2.706055 5.522053 -0.483916 0
M  V30 70 H -1.300491 8.248974 -0.383961 0
M  V30 71 H -2.540783 7.710473 -1.608840 0
M  V30 72 H -0.880605 7.050645 -1.666918 0
M  V30 73 H 0.572134 5.048789 3.232553 0
M  V30 74 H 1.235789 5.237351 1.595019 0
M  V30 75 H 2.138324 3.014699 3.464782 0
M  V30 76 H 2.944155 4.569507 3.094695 0
M  V30 77 H 3.217557 4.100077 0.801521 0
M  V30 78 H 2.318847 2.497760 0.889834 0
M  V30 79 H 4.062000 1.462366 1.958245 0
M  V30 80 H 5.008301 2.713814 1.076954 0
M  V30 81 H 4.548878 2.936647 2.839505 0
M  V30 82 H -4.353671 -1.748867 1.095788 0
M  V30 83 H -3.760086 -3.317963 -0.596699 0
M  V30 END ATOM
M  V30 BEGIN BOND
M  V30 1 1 1 2
M  V30 2 1 2 3
M  V30 3 1 3 4
M  V30 4 1 4 5
M  V30 5 1 5 6
M  V30 6 1 6 7
M  V30 7 2 7 8
M  V30 8 1 8 9
M  V30 9 2 9 10
M  V30 10 1 10 11
M  V30 11 1 11 12
M  V30 12 1 12 13
M  V30 13 2 12 14
M  V30 14 2 12 15
M  V30 15 1 10 16
M  V30 16 2 16 17
M  V30 17 1 17 18
M  V30 18 1 18 19
M  V30 19 2 19 20
M  V30 20 1 19 21
M  V30 21 2 21 22
M  V30 22 1 22 23
M  V30 23 2 23 24
M  V30 24 1 24 25
M  V30 25 1 25 26
M  V30 26 1 26 27
M  V30 27 1 27 28
M  V30 28 1 28 29
M  V30 29 1 29 30
M  V30 30 1 30 31
M  V30 31 1 31 32
M  V30 32 1 32 33
M  V30 33 1 29 34
M  V30 34 1 34 35
M  V30 35 1 35 36
M  V30 36 1 36 37
M  V30 37 1 24 38
M  V30 38 2 38 39
M  V30 39 2 18 5
M  V30 40 1 39 21
M  V30 41 1 17 7
M  V30 42 1 1 40
M  V30 43 1 1 41
M  V30 44 1 1 42
M  V30 45 1 2 43
M  V30 46 1 2 44
M  V30 47 1 3 45
M  V30 48 1 3 46
M  V30 49 1 4 47
M  V30 50 1 4 48
M  V30 51 1 8 49
M  V30 52 1 9 50
M  V30 53 1 11 51
M  V30 54 1 13 52
M  V30 55 1 13 53
M  V30 56 1 13 54
M  V30 57 1 16 55
M  V30 58 1 22 56
M  V30 59 1 23 57
M  V30 60 1 26 58
M  V30 61 1 26 59
M  V30 62 1 27 60
M  V30 63 1 27 61
M  V30 64 1 28 62
M  V30 65 1 28 63
M  V30 66 1 30 64
M  V30 67 1 30 65
M  V30 68 1 31 66
M  V30 69 1 31 67
M  V30 70 1 32 68
M  V30 71 1 32 69
M  V30 72 1 33 70
M  V30 73 1 33 71
M  V30 74 1 33 72
M  V30 75 1 34 73
M  V30 76 1 34 74
M  V30 77 1 35 75
M  V30 78 1 35 76
M  V30 79 1 36 77
M  V30 80 1 36 78
M  V30 81 1 37 79
M  V30 82 1 37 80
M  V30 83 1 37 81
M  V30 84 1 38 82
M  V30 85 1 39 83
M  V30 END BOND
M  V30 END CTAB
M  END
>  <Dataset>  (313) 
OralDrugs

>  <Ligand_Instance>  (313) 
nan

>  <PDB_ID>  (313) 
nan

>  <Standardized_SMILES>  (313) 
CCCCc1oc2ccc(NS(C)(=O)=O)cc2c1C(=O)c1ccc(OCCCN(CCCC)CCCC)cc1

>  <Name>  (313) 
Dronedarone

>  <Pocket>  (313) 
nan

>  <ATP_Site>  (313) 
nan

>  <Peripheral>  (313) 
nan

>  <Num_H_Atoms_ProtBoundConf>  (313) 
nan

>  <Num_Resolved_Atoms>  (313) 
nan

>  <Num_Not_Resolved_Atoms>  (313) 
nan

$$$$
CHEMBL1509
     RDKit          3D

  0  0  0  0  0  0  0  0  0  0999 V3000
M  V30 BEGIN CTAB
M  V30 COUNTS 57 63 0 0 0
M  V30 BEGIN ATOM
M  V30 1 C 1.831604 -3.112497 0.380833 0
M  V30 2 C 2.226998 -1.703025 0.097187 0 CFG=2
M  V30 3 C 3.171402 -1.679339 -1.058446 0
M  V30 4 C 4.269291 -2.690978 -0.837930 0
M  V30 5 C 4.561623 -2.873540 0.622980 0
M  V30 6 O 5.133033 -3.864365 1.103226 0
M  V30 7 C 4.127255 -1.782680 1.520751 0
M  V30 8 C 2.972369 -1.172467 1.295370 0
M  V30 9 C 2.476575 -0.070913 2.145679 0 CFG=2
M  V30 10 C 1.661263 -0.474416 3.330901 0
M  V30 11 C 1.026996 0.136565 2.135531 0 CFG=2
M  V30 12 C 0.241712 -0.745909 1.186526 0 CFG=1
M  V30 13 C -1.016619 0.003584 0.833119 0 CFG=2
M  V30 14 C -1.870532 0.392321 1.972856 0 CFG=2
M  V30 15 C -3.088714 -0.290116 2.409380 0
M  V30 16 C -3.243038 0.630922 1.281962 0 CFG=2
M  V30 17 C -3.060261 0.218904 -0.149513 0 CFG=2
M  V30 18 C -2.896017 1.484233 -0.968338 0
M  V30 19 C -4.363863 1.918994 -1.068446 0
M  V30 20 C -4.963092 0.586150 -1.421631 0
M  V30 21 O -5.944281 0.370599 -2.207262 0
M  V30 22 O -4.220422 -0.359574 -0.710100 0
M  V30 23 C -1.850705 -0.679660 -0.202816 0 CFG=2
M  V30 24 C -2.187224 -2.104212 0.036834 0
M  V30 25 C -1.070920 -0.579905 -1.472279 0
M  V30 26 C 0.246994 -1.300408 -1.279693 0
M  V30 27 C 1.023050 -0.815991 -0.106912 0 CFG=2
M  V30 28 H 2.242818 -3.485990 1.355447 0
M  V30 29 H 0.734795 -3.228846 0.461320 0
M  V30 30 H 2.169488 -3.851055 -0.388356 0
M  V30 31 H 3.627186 -0.651436 -1.077748 0
M  V30 32 H 2.695197 -1.893404 -2.030721 0
M  V30 33 H 5.175340 -2.271250 -1.325713 0
M  V30 34 H 4.003782 -3.674315 -1.237099 0
M  V30 35 H 4.759951 -1.492400 2.359791 0
M  V30 36 H 3.144293 0.824687 2.292253 0
M  V30 37 H 1.654213 0.131668 4.259216 0
M  V30 38 H 1.415874 -1.563295 3.480586 0
M  V30 39 H 0.698583 1.213485 2.243696 0
M  V30 40 H 0.032505 -1.736917 1.636362 0
M  V30 41 H -0.650439 0.944783 0.361384 0
M  V30 42 H -1.463293 1.255823 2.571956 0
M  V30 43 H -3.501970 0.079125 3.377376 0
M  V30 44 H -3.156284 -1.377555 2.343027 0
M  V30 45 H -3.688290 1.634444 1.445943 0
M  V30 46 H -2.258128 2.240496 -0.502275 0
M  V30 47 H -2.616502 1.277841 -2.032458 0
M  V30 48 H -4.426778 2.634010 -1.903546 0
M  V30 49 H -4.757050 2.339074 -0.146055 0
M  V30 50 H -1.963846 -2.756335 -0.857616 0
M  V30 51 H -3.313981 -2.179572 0.086405 0
M  V30 52 H -1.694801 -2.596880 0.878534 0
M  V30 53 H -0.768177 0.486430 -1.686700 0
M  V30 54 H -1.556778 -1.054450 -2.334849 0
M  V30 55 H 0.849885 -1.041657 -2.186638 0
M  V30 56 H 0.147891 -2.389597 -1.296586 0
M  V30 57 H 1.332055 0.227060 -0.325614 0
M  V30 END ATOM
M  V30 BEGIN BOND
M  V30 1 1 2 1 CFG=1
M  V30 2 1 2 3
M  V30 3 1 3 4
M  V30 4 1 4 5
M  V30 5 2 5 6
M  V30 6 1 5 7
M  V30 7 2 7 8
M  V30 8 1 8 9
M  V30 9 1 9 10
M  V30 10 1 10 11
M  V30 11 1 11 12
M  V30 12 1 12 13
M  V30 13 1 13 14
M  V30 14 1 14 15
M  V30 15 1 15 16
M  V30 16 1 16 17
M  V30 17 1 17 18
M  V30 18 1 18 19
M  V30 19 1 19 20
M  V30 20 2 20 21
M  V30 21 1 20 22
M  V30 22 1 17 23
M  V30 23 1 23 24 CFG=1
M  V30 24 1 23 25
M  V30 25 1 25 26
M  V30 26 1 26 27
M  V30 27 1 8 2
M  V30 28 1 11 9
M  V30 29 1 27 12
M  V30 30 1 27 2
M  V30 31 1 23 13
M  V30 32 1 16 14
M  V30 33 1 17 22 CFG=3
M  V30 34 1 1 28
M  V30 35 1 1 29
M  V30 36 1 1 30
M  V30 37 1 3 31
M  V30 38 1 3 32
M  V30 39 1 4 33
M  V30 40 1 4 34
M  V30 41 1 7 35
M  V30 42 1 9 36 CFG=1
M  V30 43 1 10 37
M  V30 44 1 10 38
M  V30 45 1 11 39 CFG=1
M  V30 46 1 12 40 CFG=1
M  V30 47 1 13 41 CFG=3
M  V30 48 1 14 42 CFG=1
M  V30 49 1 15 43
M  V30 50 1 15 44
M  V30 51 1 16 45 CFG=3
M  V30 52 1 18 46
M  V30 53 1 18 47
M  V30 54 1 19 48
M  V30 55 1 19 49
M  V30 56 1 24 50
M  V30 57 1 24 51
M  V30 58 1 24 52
M  V30 59 1 25 53
M  V30 60 1 25 54
M  V30 61 1 26 55
M  V30 62 1 26 56
M  V30 63 1 27 57 CFG=3
M  V30 END BOND
M  V30 END CTAB
M  END
>  <Dataset>  (314) 
OralDrugs

>  <Ligand_Instance>  (314) 
nan

>  <PDB_ID>  (314) 
nan

>  <Standardized_SMILES>  (314) 
C[C@]12CCC(=O)C=C1[C@@H]1C[C@@H]1[C@H]1[C@@H]3[C@@H]4C[C@@H]4[C@@]4(CCC(=O)O4)[C@@]3(C)CC[C@@H]12

>  <Name>  (314) 
Drospirenone

>  <Pocket>  (314) 
nan

>  <ATP_Site>  (314) 
nan

>  <Peripheral>  (314) 
nan

>  <Num_H_Atoms_ProtBoundConf>  (314) 
nan

>  <Num_Resolved_Atoms>  (314) 
nan

>  <Num_Not_Resolved_Atoms>  (314) 
nan

$$$$
CHEMBL1175
     RDKit          3D

  0  0  0  0  0  0  0  0  0  0999 V3000
M  V30 BEGIN CTAB
M  V30 COUNTS 40 42 0 0 0
M  V30 BEGIN ATOM
M  V30 1 C -0.490593 -4.575479 1.696723 0
M  V30 2 N 0.320847 -3.612142 0.977087 0
M  V30 3 C 1.028323 -2.706732 1.852749 0
M  V30 4 C 0.141317 -1.750089 2.592049 0
M  V30 5 C -0.659685 -0.842031 1.687471 0 CFG=2
M  V30 6 O 0.266651 -0.102988 0.938233 0
M  V30 7 C 0.465674 -0.074988 -0.404583 0
M  V30 8 C -0.152317 -0.721394 -1.473368 0
M  V30 9 C 0.239217 -0.526881 -2.772287 0
M  V30 10 C 1.271057 0.323776 -3.088897 0
M  V30 11 C 1.906002 0.980806 -2.055678 0
M  V30 12 C 2.945632 1.827912 -2.447716 0
M  V30 13 C 3.616573 2.509524 -1.453250 0
M  V30 14 C 3.285058 2.370100 -0.122616 0
M  V30 15 C 2.249906 1.518472 0.188912 0
M  V30 16 C 1.517093 0.790806 -0.737500 0
M  V30 17 C -1.577400 -0.036515 2.443465 0
M  V30 18 C -2.121136 0.053203 3.678692 0
M  V30 19 C -3.012062 1.018639 4.030526 0
M  V30 20 C -3.346972 1.955248 2.991631 0
M  V30 21 S -2.302197 1.324651 1.554435 0
M  V30 22 H -0.601556 -5.463097 1.027728 0
M  V30 23 H -1.508065 -4.203149 1.880507 0
M  V30 24 H 0.020592 -4.936369 2.613624 0
M  V30 25 H -0.244209 -3.163974 0.254733 0
M  V30 26 H 1.742020 -2.135181 1.235164 0
M  V30 27 H 1.584049 -3.295579 2.609392 0
M  V30 28 H -0.475953 -2.348252 3.284920 0
M  V30 29 H 0.825125 -1.140377 3.236099 0
M  V30 30 H -1.231935 -1.483565 0.988206 0
M  V30 31 H -0.948916 -1.361751 -1.123426 0
M  V30 32 H -0.298807 -1.072281 -3.535960 0
M  V30 33 H 1.567802 0.464164 -4.119397 0
M  V30 34 H 3.218616 1.949035 -3.485993 0
M  V30 35 H 4.429102 3.175489 -1.709599 0
M  V30 36 H 3.820200 2.910386 0.640880 0
M  V30 37 H 1.995111 1.413285 1.233763 0
M  V30 38 H -1.748414 -0.735021 4.317842 0
M  V30 39 H -3.430041 1.065017 5.024944 0
M  V30 40 H -4.102229 2.788875 3.256323 0
M  V30 END ATOM
M  V30 BEGIN BOND
M  V30 1 1 1 2
M  V30 2 1 2 3
M  V30 3 1 3 4
M  V30 4 1 4 5
M  V30 5 1 5 6
M  V30 6 1 6 7
M  V30 7 2 7 8
M  V30 8 1 8 9
M  V30 9 2 9 10
M  V30 10 1 10 11
M  V30 11 2 11 12
M  V30 12 1 12 13
M  V30 13 2 13 14
M  V30 14 1 14 15
M  V30 15 2 15 16
M  V30 16 1 5 17
M  V30 17 2 17 18
M  V30 18 1 18 19
M  V30 19 2 19 20
M  V30 20 1 20 21
M  V30 21 1 16 7
M  V30 22 1 21 17
M  V30 23 1 16 11
M  V30 24 1 1 22
M  V30 25 1 1 23
M  V30 26 1 1 24
M  V30 27 1 2 25
M  V30 28 1 3 26
M  V30 29 1 3 27
M  V30 30 1 4 28
M  V30 31 1 4 29
M  V30 32 1 5 30 CFG=3
M  V30 33 1 8 31
M  V30 34 1 9 32
M  V30 35 1 10 33
M  V30 36 1 12 34
M  V30 37 1 13 35
M  V30 38 1 14 36
M  V30 39 1 15 37
M  V30 40 1 18 38
M  V30 41 1 19 39
M  V30 42 1 20 40
M  V30 END BOND
M  V30 END CTAB
M  END
>  <Dataset>  (315) 
OralDrugs

>  <Ligand_Instance>  (315) 
nan

>  <PDB_ID>  (315) 
nan

>  <Standardized_SMILES>  (315) 
CNCC[C@H](Oc1cccc2ccccc12)c1cccs1

>  <Name>  (315) 
Duloxetine

>  <Pocket>  (315) 
nan

>  <ATP_Site>  (315) 
nan

>  <Peripheral>  (315) 
nan

>  <Num_H_Atoms_ProtBoundConf>  (315) 
nan

>  <Num_Resolved_Atoms>  (315) 
nan

>  <Num_Not_Resolved_Atoms>  (315) 
nan

$$$$
CHEMBL1200969
     RDKit          3D

  0  0  0  0  0  0  0  0  0  0999 V3000
M  V30 BEGIN CTAB
M  V30 COUNTS 67 71 0 0 0
M  V30 BEGIN ATOM
M  V30 1 C 0.365486 2.561735 3.949652 0
M  V30 2 C 1.344134 1.436825 3.794613 0 CFG=2
M  V30 3 C 1.330438 0.585460 4.987233 0
M  V30 4 C 2.149991 0.670096 6.025792 0
M  V30 5 C 3.203695 1.706869 6.040078 0
M  V30 6 O 4.033929 1.857692 6.999510 0
M  V30 7 N 3.248572 2.561790 4.886510 0
M  V30 8 C 2.762980 1.989474 3.661898 0 CFG=2
M  V30 9 C 2.790992 2.929638 2.502364 0
M  V30 10 C 2.544595 2.133136 1.237493 0
M  V30 11 C 1.250448 1.356570 1.281299 0 CFG=2
M  V30 12 C 1.116992 0.588008 2.594214 0 CFG=2
M  V30 13 C -0.237058 -0.073208 2.539652 0
M  V30 14 C -0.239228 -1.104962 1.438629 0
M  V30 15 C 0.041858 -0.521397 0.095462 0 CFG=2
M  V30 16 C -1.062434 0.355743 -0.416970 0
M  V30 17 C 0.621610 -1.462265 -0.895104 0 CFG=1
M  V30 18 C -0.182542 -2.576287 -1.350529 0
M  V30 19 O 0.224455 -3.772898 -1.146367 0
M  V30 20 N -1.424200 -2.485843 -2.026891 0
M  V30 21 C -2.309040 -3.453215 -2.523796 0
M  V30 22 C -2.160229 -4.811482 -2.450235 0
M  V30 23 C -3.048578 -5.743496 -2.946186 0
M  V30 24 C -2.810036 -7.206409 -2.823872 0
M  V30 25 F -3.062829 -7.647833 -1.520293 0
M  V30 26 F -3.505046 -7.923864 -3.748160 0
M  V30 27 F -1.441052 -7.429898 -3.017700 0
M  V30 28 C -4.178452 -5.309923 -3.566789 0
M  V30 29 C -4.362855 -3.954555 -3.660131 0
M  V30 30 C -3.459428 -3.043911 -3.156125 0
M  V30 31 C -3.782572 -1.614765 -3.333387 0
M  V30 32 F -2.776934 -1.024320 -4.089074 0
M  V30 33 F -4.950430 -1.425501 -4.040064 0
M  V30 34 F -3.928948 -0.967344 -2.117875 0
M  V30 35 C 1.097125 -0.495787 -1.956050 0
M  V30 36 C 1.517301 0.736524 -1.173933 0
M  V30 37 C 1.300431 0.326879 0.240096 0 CFG=1
M  V30 38 H 0.805617 3.343382 4.626385 0
M  V30 39 H -0.584940 2.190746 4.384971 0
M  V30 40 H 0.118659 3.079288 3.012713 0
M  V30 41 H 0.599687 -0.228034 5.111872 0
M  V30 42 H 2.109918 0.024464 6.888178 0
M  V30 43 H 3.625022 3.533687 5.001444 0
M  V30 44 H 3.422422 1.119972 3.397627 0
M  V30 45 H 3.806740 3.351479 2.412950 0
M  V30 46 H 2.029127 3.719520 2.610843 0
M  V30 47 H 3.386546 1.443648 1.059314 0
M  V30 48 H 2.428626 2.896747 0.421367 0
M  V30 49 H 0.440546 2.080937 1.254322 0
M  V30 50 H 1.871593 -0.225483 2.618812 0
M  V30 51 H -0.568386 -0.535401 3.467867 0
M  V30 52 H -0.993952 0.695464 2.276345 0
M  V30 53 H -1.288536 -1.519445 1.445668 0
M  V30 54 H 0.422906 -1.957977 1.636577 0
M  V30 55 H -1.099760 1.331467 0.153890 0
M  V30 56 H -2.082370 -0.066373 -0.249773 0
M  V30 57 H -0.883319 0.681959 -1.460536 0
M  V30 58 H 1.565413 -1.860489 -0.435673 0
M  V30 59 H -1.677532 -1.466704 -2.148706 0
M  V30 60 H -1.289764 -5.233854 -1.972498 0
M  V30 61 H -4.921763 -5.975000 -3.980963 0
M  V30 62 H -5.270211 -3.606757 -4.158496 0
M  V30 63 H 0.362622 -0.301973 -2.734306 0
M  V30 64 H 2.017354 -0.934931 -2.441460 0
M  V30 65 H 0.940112 1.589040 -1.532801 0
M  V30 66 H 2.593159 0.981428 -1.373719 0
M  V30 67 H 2.102084 -0.398299 0.497590 0
M  V30 END ATOM
M  V30 BEGIN BOND
M  V30 1 1 2 1 CFG=1
M  V30 2 1 2 3
M  V30 3 2 3 4
M  V30 4 1 4 5
M  V30 5 2 5 6
M  V30 6 1 5 7
M  V30 7 1 7 8
M  V30 8 1 8 9
M  V30 9 1 9 10
M  V30 10 1 10 11
M  V30 11 1 11 12
M  V30 12 1 12 13
M  V30 13 1 13 14
M  V30 14 1 14 15
M  V30 15 1 15 16 CFG=3
M  V30 16 1 15 17
M  V30 17 1 17 18
M  V30 18 2 18 19
M  V30 19 1 18 20
M  V30 20 1 20 21
M  V30 21 2 21 22
M  V30 22 1 22 23
M  V30 23 1 23 24
M  V30 24 1 24 25
M  V30 25 1 24 26
M  V30 26 1 24 27
M  V30 27 2 23 28
M  V30 28 1 28 29
M  V30 29 2 29 30
M  V30 30 1 30 31
M  V30 31 1 31 32
M  V30 32 1 31 33
M  V30 33 1 31 34
M  V30 34 1 17 35
M  V30 35 1 35 36
M  V30 36 1 36 37
M  V30 37 1 8 2
M  V30 38 1 37 11
M  V30 39 1 12 2
M  V30 40 1 37 15
M  V30 41 1 30 21
M  V30 42 1 1 38
M  V30 43 1 1 39
M  V30 44 1 1 40
M  V30 45 1 3 41
M  V30 46 1 4 42
M  V30 47 1 7 43
M  V30 48 1 8 44 CFG=3
M  V30 49 1 9 45
M  V30 50 1 9 46
M  V30 51 1 10 47
M  V30 52 1 10 48
M  V30 53 1 11 49 CFG=3
M  V30 54 1 12 50 CFG=3
M  V30 55 1 13 51
M  V30 56 1 13 52
M  V30 57 1 14 53
M  V30 58 1 14 54
M  V30 59 1 16 55
M  V30 60 1 16 56
M  V30 61 1 16 57
M  V30 62 1 17 58 CFG=1
M  V30 63 1 20 59
M  V30 64 1 22 60
M  V30 65 1 28 61
M  V30 66 1 29 62
M  V30 67 1 35 63
M  V30 68 1 35 64
M  V30 69 1 36 65
M  V30 70 1 36 66
M  V30 71 1 37 67 CFG=1
M  V30 END BOND
M  V30 END CTAB
M  END
>  <Dataset>  (316) 
OralDrugs

>  <Ligand_Instance>  (316) 
nan

>  <PDB_ID>  (316) 
nan

>  <Standardized_SMILES>  (316) 
C[C@]12C=CC(=O)N[C@@H]1CC[C@@H]1[C@@H]2CC[C@]2(C)[C@@H](C(=O)Nc3cc(C(F)(F)F)ccc3C(F)(F)F)CC[C@@H]12

>  <Name>  (316) 
Dutasteride

>  <Pocket>  (316) 
nan

>  <ATP_Site>  (316) 
nan

>  <Peripheral>  (316) 
nan

>  <Num_H_Atoms_ProtBoundConf>  (316) 
nan

>  <Num_Resolved_Atoms>  (316) 
nan

>  <Num_Not_Resolved_Atoms>  (316) 
nan

$$$$
CHEMBL3039502
     RDKit          3D

  0  0  0  0  0  0  0  0  0  0999 V3000
M  V30 BEGIN CTAB
M  V30 COUNTS 47 51 0 0 0
M  V30 BEGIN ATOM
M  V30 1 C -1.590445 1.995829 0.262590 0
M  V30 2 C -0.577453 1.070503 0.925519 0 CFG=2
M  V30 3 N 0.721610 1.672815 0.763351 0
M  V30 4 C 1.882429 1.038980 1.281712 0
M  V30 5 N 1.754648 -0.152093 1.938176 0
M  V30 6 C 2.886279 -0.703561 2.405904 0
M  V30 7 N 4.114873 -0.169518 2.272668 0
M  V30 8 C 4.305683 1.000702 1.636676 0
M  V30 9 N 5.341125 1.805555 1.323622 0
M  V30 10 C 4.838989 2.860760 0.657407 0
M  V30 11 N 3.493882 2.744072 0.538429 0
M  V30 12 C 3.160740 1.591512 1.144852 0
M  V30 13 C -0.672187 -0.266784 0.308370 0
M  V30 14 C -0.143088 -0.416292 -0.970166 0
M  V30 15 C -0.215652 -1.653449 -1.574837 0
M  V30 16 C 0.274634 -1.908648 -2.831927 0
M  V30 17 C 0.222731 -3.129533 -3.472804 0
M  V30 18 C -0.377311 -4.190917 -2.786281 0
M  V30 19 C -0.881897 -3.970679 -1.518822 0
M  V30 20 Cl -1.631746 -5.295538 -0.659924 0
M  V30 21 C -0.806847 -2.733811 -0.919913 0
M  V30 22 C -1.317566 -2.512954 0.361681 0
M  V30 23 O -1.851875 -3.517862 0.935918 0
M  V30 24 N -1.247119 -1.298427 0.957060 0
M  V30 25 C -1.788919 -1.146774 2.265344 0
M  V30 26 C -2.911401 -0.439773 2.646785 0
M  V30 27 C -3.271826 -0.416916 3.979523 0
M  V30 28 C -2.505791 -1.099199 4.903581 0
M  V30 29 C -1.372150 -1.822100 4.570930 0
M  V30 30 C -1.023475 -1.833125 3.215920 0
M  V30 31 H -2.507658 1.406753 0.092583 0
M  V30 32 H -1.224019 2.384568 -0.712609 0
M  V30 33 H -1.787882 2.814943 0.993602 0
M  V30 34 H -0.815258 1.044932 1.996365 0
M  V30 35 H 0.870934 2.591876 0.263786 0
M  V30 36 H 2.842372 -1.660316 2.941310 0
M  V30 37 H 5.460681 3.662193 0.289376 0
M  V30 38 H 2.939271 3.485295 0.042679 0
M  V30 39 H 0.328781 0.384835 -1.530843 0
M  V30 40 H 0.739789 -1.121394 -3.386167 0
M  V30 41 H 0.639100 -3.254922 -4.483714 0
M  V30 42 H -0.411299 -5.144439 -3.301498 0
M  V30 43 H -3.421488 0.045910 1.845505 0
M  V30 44 H -4.156489 0.147470 4.237621 0
M  V30 45 H -2.800067 -1.073095 5.947616 0
M  V30 46 H -0.787648 -2.349512 5.316379 0
M  V30 47 H -0.129905 -2.412145 3.008261 0
M  V30 END ATOM
M  V30 BEGIN BOND
M  V30 1 1 1 2
M  V30 2 1 2 3
M  V30 3 1 3 4
M  V30 4 2 4 5
M  V30 5 1 5 6
M  V30 6 2 6 7
M  V30 7 1 7 8
M  V30 8 1 8 9
M  V30 9 2 9 10
M  V30 10 1 10 11
M  V30 11 1 11 12
M  V30 12 1 2 13
M  V30 13 2 13 14
M  V30 14 1 14 15
M  V30 15 2 15 16
M  V30 16 1 16 17
M  V30 17 2 17 18
M  V30 18 1 18 19
M  V30 19 1 19 20
M  V30 20 2 19 21
M  V30 21 1 21 22
M  V30 22 2 22 23
M  V30 23 1 22 24
M  V30 24 1 24 25
M  V30 25 2 25 26
M  V30 26 1 26 27
M  V30 27 2 27 28
M  V30 28 1 28 29
M  V30 29 2 29 30
M  V30 30 1 12 4
M  V30 31 1 24 13
M  V30 32 1 30 25
M  V30 33 2 12 8
M  V30 34 1 21 15
M  V30 35 1 1 31
M  V30 36 1 1 32
M  V30 37 1 1 33
M  V30 38 1 2 34 CFG=1
M  V30 39 1 3 35
M  V30 40 1 6 36
M  V30 41 1 10 37
M  V30 42 1 11 38
M  V30 43 1 14 39
M  V30 44 1 16 40
M  V30 45 1 17 41
M  V30 46 1 18 42
M  V30 47 1 26 43
M  V30 48 1 27 44
M  V30 49 1 28 45
M  V30 50 1 29 46
M  V30 51 1 30 47
M  V30 END BOND
M  V30 END CTAB
M  END
>  <Dataset>  (317) 
OralDrugs

>  <Ligand_Instance>  (317) 
nan

>  <PDB_ID>  (317) 
nan

>  <Standardized_SMILES>  (317) 
C[C@H](Nc1ncnc2nc[nH]c12)c1cc2cccc(Cl)c2c(=O)n1-c1ccccc1

>  <Name>  (317) 
Duvelisib

>  <Pocket>  (317) 
nan

>  <ATP_Site>  (317) 
nan

>  <Peripheral>  (317) 
nan

>  <Num_H_Atoms_ProtBoundConf>  (317) 
nan

>  <Num_Resolved_Atoms>  (317) 
nan

>  <Num_Not_Resolved_Atoms>  (317) 
nan

$$$$
CHEMBL1200853
     RDKit          3D

  0  0  0  0  0  0  0  0  0  0999 V3000
M  V30 BEGIN CTAB
M  V30 COUNTS 51 54 0 0 0
M  V30 BEGIN ATOM
M  V30 1 C 0.144185 -4.991809 3.605097 0
M  V30 2 C -0.582688 -3.997023 2.767462 0
M  V30 3 O -1.814197 -3.970107 2.855225 0
M  V30 4 C 0.227900 -3.132445 1.908039 0 CFG=1
M  V30 5 C 1.062118 -3.892128 0.890729 0
M  V30 6 C 1.032830 -3.056929 -0.397724 0
M  V30 7 C 0.599003 -1.723445 0.179766 0 CFG=1
M  V30 8 C 0.211886 -0.728993 -0.858294 0 CFG=2
M  V30 9 C 1.425189 -0.248795 -1.509213 0
M  V30 10 C 1.952689 0.942457 -1.453672 0
M  V30 11 C 1.232952 1.921012 -0.632202 0
M  V30 12 C 1.687768 3.181892 -0.619202 0
M  V30 13 C 1.065871 4.251323 0.154002 0
M  V30 14 O 1.663172 5.334415 0.365550 0
M  V30 15 C -0.299389 4.007512 0.679617 0
M  V30 16 C -0.889327 2.780620 0.025963 0
M  V30 17 C 0.044480 1.580023 0.170112 0 CFG=2
M  V30 18 C 0.420991 1.517378 1.610896 0
M  V30 19 C -0.672052 0.352026 -0.330668 0 CFG=2
M  V30 20 C -1.700395 -0.106086 0.625136 0
M  V30 21 C -1.304569 -1.140320 1.635080 0
M  V30 22 C -0.571021 -2.245983 0.991621 0 CFG=2
M  V30 23 C -1.473846 -3.128255 0.184764 0
M  V30 24 H 0.966894 -4.415213 4.120379 0
M  V30 25 H -0.521811 -5.476967 4.345605 0
M  V30 26 H 0.665091 -5.703646 2.934317 0
M  V30 27 H 0.887110 -2.509301 2.580341 0
M  V30 28 H 2.132875 -3.876527 1.236401 0
M  V30 29 H 0.697771 -4.918219 0.706260 0
M  V30 30 H 0.299528 -3.454371 -1.126656 0
M  V30 31 H 2.034219 -2.981507 -0.848170 0
M  V30 32 H 1.439110 -1.420855 0.836614 0
M  V30 33 H -0.368678 -1.309646 -1.632460 0
M  V30 34 H 1.959916 -0.987026 -2.123327 0
M  V30 35 H 2.867314 1.187615 -1.984616 0
M  V30 36 H 2.571245 3.428879 -1.217505 0
M  V30 37 H -0.353883 3.965973 1.784413 0
M  V30 38 H -0.910159 4.878691 0.348045 0
M  V30 39 H -1.871058 2.626866 0.489170 0
M  V30 40 H -1.075500 3.015685 -1.048713 0
M  V30 41 H 1.011472 2.436776 1.821550 0
M  V30 42 H 1.061398 0.690196 1.913944 0
M  V30 43 H -0.486571 1.633900 2.253847 0
M  V30 44 H -1.224862 0.743722 -1.236749 0
M  V30 45 H -2.154431 0.724750 1.169686 0
M  V30 46 H -2.547885 -0.565587 0.035530 0
M  V30 47 H -2.257882 -1.575052 2.030580 0
M  V30 48 H -0.814160 -0.728166 2.531306 0
M  V30 49 H -1.122153 -4.169243 0.162456 0
M  V30 50 H -1.618922 -2.802277 -0.863475 0
M  V30 51 H -2.481835 -3.072497 0.657801 0
M  V30 END ATOM
M  V30 BEGIN BOND
M  V30 1 1 1 2
M  V30 2 2 2 3
M  V30 3 1 2 4
M  V30 4 1 4 5
M  V30 5 1 5 6
M  V30 6 1 6 7
M  V30 7 1 7 8
M  V30 8 1 8 9
M  V30 9 2 9 10
M  V30 10 1 10 11
M  V30 11 2 11 12
M  V30 12 1 12 13
M  V30 13 2 13 14
M  V30 14 1 13 15
M  V30 15 1 15 16
M  V30 16 1 16 17
M  V30 17 1 17 18 CFG=1
M  V30 18 1 17 19
M  V30 19 1 19 20
M  V30 20 1 20 21
M  V30 21 1 21 22
M  V30 22 1 22 23 CFG=3
M  V30 23 1 22 4
M  V30 24 1 22 7
M  V30 25 1 19 8
M  V30 26 1 17 11
M  V30 27 1 1 24
M  V30 28 1 1 25
M  V30 29 1 1 26
M  V30 30 1 4 27 CFG=1
M  V30 31 1 5 28
M  V30 32 1 5 29
M  V30 33 1 6 30
M  V30 34 1 6 31
M  V30 35 1 7 32 CFG=1
M  V30 36 1 8 33 CFG=3
M  V30 37 1 9 34
M  V30 38 1 10 35
M  V30 39 1 12 36
M  V30 40 1 15 37
M  V30 41 1 15 38
M  V30 42 1 16 39
M  V30 43 1 16 40
M  V30 44 1 18 41
M  V30 45 1 18 42
M  V30 46 1 18 43
M  V30 47 1 19 44 CFG=3
M  V30 48 1 20 45
M  V30 49 1 20 46
M  V30 50 1 21 47
M  V30 51 1 21 48
M  V30 52 1 23 49
M  V30 53 1 23 50
M  V30 54 1 23 51
M  V30 END BOND
M  V30 END CTAB
M  END
>  <Dataset>  (318) 
OralDrugs

>  <Ligand_Instance>  (318) 
nan

>  <PDB_ID>  (318) 
nan

>  <Standardized_SMILES>  (318) 
CC(=O)[C@H]1CC[C@H]2[C@@H]3C=CC4=CC(=O)CC[C@@]4(C)[C@@H]3CC[C@]12C

>  <Name>  (318) 
Dydrogesterone

>  <Pocket>  (318) 
nan

>  <ATP_Site>  (318) 
nan

>  <Peripheral>  (318) 
nan

>  <Num_H_Atoms_ProtBoundConf>  (318) 
nan

>  <Num_Resolved_Atoms>  (318) 
nan

>  <Num_Not_Resolved_Atoms>  (318) 
nan

$$$$
CHEMBL1752
     RDKit          3D

  0  0  0  0  0  0  0  0  0  0999 V3000
M  V30 BEGIN CTAB
M  V30 COUNTS 32 33 0 0 0
M  V30 BEGIN ATOM
M  V30 1 C -3.179965 -2.004229 2.050542 0
M  V30 2 N -2.080885 -1.066589 1.861317 0
M  V30 3 C -0.862873 -1.476099 1.414883 0
M  V30 4 O -0.708022 -2.699473 1.167289 0
M  V30 5 C 0.155605 -0.578265 1.244121 0
M  V30 6 C -0.086857 0.747996 1.536573 0
M  V30 7 N 1.075151 1.381509 1.280161 0
M  V30 8 C 1.979378 0.472703 0.850827 0
M  V30 9 N 1.419208 -0.772582 0.820239 0
M  V30 10 C 2.118838 -1.968489 0.401448 0
M  V30 11 C 2.029561 -2.246527 -1.071498 0
M  V30 12 O 0.732302 -2.420614 -1.542554 0
M  V30 13 C 2.678831 -1.184505 -1.927731 0
M  V30 14 O 2.001044 0.029240 -1.869380 0
M  V30 15 N -1.308133 1.144718 1.981961 0
M  V30 16 C -1.484807 2.563763 2.268984 0
M  V30 17 C -2.290357 0.235447 2.139365 0
M  V30 18 O -3.408353 0.656815 2.556535 0
M  V30 19 H -4.098939 -1.649713 1.541492 0
M  V30 20 H -3.419026 -2.127599 3.135129 0
M  V30 21 H -2.908650 -3.005646 1.689721 0
M  V30 22 H 2.964360 0.804019 0.599848 0
M  V30 23 H 1.752038 -2.838840 0.952554 0
M  V30 24 H 3.202064 -1.829025 0.624182 0
M  V30 25 H 2.547006 -3.208709 -1.262525 0
M  V30 26 H 0.384457 -3.314255 -1.384344 0
M  V30 27 H 3.737591 -1.047897 -1.610885 0
M  V30 28 H 2.640191 -1.532594 -2.979877 0
M  V30 29 H 2.621811 0.810123 -1.958406 0
M  V30 30 H -0.636954 2.907534 2.895463 0
M  V30 31 H -2.465542 2.751606 2.708210 0
M  V30 32 H -1.402185 3.121879 1.293730 0
M  V30 END ATOM
M  V30 BEGIN BOND
M  V30 1 1 1 2
M  V30 2 1 2 3
M  V30 3 2 3 4
M  V30 4 1 3 5
M  V30 5 2 5 6
M  V30 6 1 6 7
M  V30 7 2 7 8
M  V30 8 1 8 9
M  V30 9 1 9 10
M  V30 10 1 10 11
M  V30 11 1 11 12
M  V30 12 1 11 13
M  V30 13 1 13 14
M  V30 14 1 6 15
M  V30 15 1 15 16
M  V30 16 1 15 17
M  V30 17 2 17 18
M  V30 18 1 17 2
M  V30 19 1 9 5
M  V30 20 1 1 19
M  V30 21 1 1 20
M  V30 22 1 1 21
M  V30 23 1 8 22
M  V30 24 1 10 23
M  V30 25 1 10 24
M  V30 26 1 11 25
M  V30 27 1 12 26
M  V30 28 1 13 27
M  V30 29 1 13 28
M  V30 30 1 14 29
M  V30 31 1 16 30
M  V30 32 1 16 31
M  V30 33 1 16 32
M  V30 END BOND
M  V30 END CTAB
M  END
>  <Dataset>  (319) 
OralDrugs

>  <Ligand_Instance>  (319) 
nan

>  <PDB_ID>  (319) 
nan

>  <Standardized_SMILES>  (319) 
Cn1c(=O)c2c(ncn2CC(O)CO)n(C)c1=O

>  <Name>  (319) 
Dyphylline

>  <Pocket>  (319) 
nan

>  <ATP_Site>  (319) 
nan

>  <Peripheral>  (319) 
nan

>  <Num_H_Atoms_ProtBoundConf>  (319) 
nan

>  <Num_Resolved_Atoms>  (319) 
nan

>  <Num_Not_Resolved_Atoms>  (319) 
nan

$$$$
CHEMBL305660
     RDKit          3D

  0  0  0  0  0  0  0  0  0  0999 V3000
M  V30 BEGIN CTAB
M  V30 COUNTS 74 77 0 0 0
M  V30 BEGIN ATOM
M  V30 1 C 3.572112 -1.312912 3.929454 0
M  V30 2 C 4.576177 -0.616392 3.029508 0
M  V30 3 C 5.533068 -1.666373 2.533894 0
M  V30 4 C 5.336854 0.363944 3.880670 0
M  V30 5 C 3.882131 0.116827 1.946931 0
M  V30 6 C 3.629772 -0.538088 0.778314 0
M  V30 7 C 2.986877 0.104261 -0.254214 0
M  V30 8 C 2.564984 1.425981 -0.174444 0
M  V30 9 C 1.869732 2.141576 -1.265068 0
M  V30 10 O 1.558379 3.356055 -1.014643 0
M  V30 11 C 1.649151 1.316789 -2.479446 0
M  V30 12 C 0.913755 2.071472 -3.560316 0
M  V30 13 C -0.442592 2.542357 -3.153704 0
M  V30 14 N -1.389966 1.590987 -2.764205 0
M  V30 15 C -2.680744 2.076121 -2.374190 0
M  V30 16 C -3.186135 1.192712 -1.250798 0
M  V30 17 C -2.607422 -0.181953 -1.308704 0
M  V30 18 O -3.357357 -1.173805 -0.733156 0
M  V30 19 C -2.663710 -1.933965 0.200459 0
M  V30 20 C -3.342566 -1.796118 1.495364 0
M  V30 21 C -3.551645 -2.927545 2.247313 0
M  V30 22 C -4.175328 -2.974973 3.486155 0
M  V30 23 C -4.608066 -1.736562 3.962216 0
M  V30 24 C -4.434789 -0.546252 3.263012 0
M  V30 25 C -3.797911 -0.623920 2.035945 0
M  V30 26 C -2.566626 -3.353301 -0.232665 0
M  V30 27 C -1.361373 -4.055246 -0.139765 0
M  V30 28 C -1.171729 -5.369049 -0.513663 0
M  V30 29 C -2.281830 -6.015903 -1.016738 0
M  V30 30 C -3.514180 -5.376135 -1.136893 0
M  V30 31 C -3.663298 -4.044857 -0.746658 0
M  V30 32 C -2.484500 -0.570557 -2.788609 0
M  V30 33 C -1.498058 0.369594 -3.487537 0
M  V30 34 C 2.849397 2.030608 1.030416 0
M  V30 35 C 3.490239 1.426764 2.090288 0
M  V30 36 H 3.101055 -2.129229 3.346020 0
M  V30 37 H 4.147020 -1.807702 4.736480 0
M  V30 38 H 2.793786 -0.607578 4.297651 0
M  V30 39 H 6.185154 -1.923822 3.416692 0
M  V30 40 H 6.232184 -1.284914 1.750410 0
M  V30 41 H 5.042904 -2.605769 2.254878 0
M  V30 42 H 6.090907 -0.189262 4.482477 0
M  V30 43 H 5.878213 1.123628 3.298497 0
M  V30 44 H 4.601795 0.866840 4.552173 0
M  V30 45 H 3.931589 -1.567867 0.650178 0
M  V30 46 H 2.790710 -0.426972 -1.180242 0
M  V30 47 H 2.626661 0.994520 -2.928876 0
M  V30 48 H 1.151579 0.380664 -2.159826 0
M  V30 49 H 1.525171 3.015412 -3.691002 0
M  V30 50 H 0.965321 1.589821 -4.536967 0
M  V30 51 H -0.887898 3.131292 -4.010957 0
M  V30 52 H -0.332247 3.294859 -2.348611 0
M  V30 53 H -3.407641 2.078259 -3.225529 0
M  V30 54 H -2.651737 3.114044 -1.992816 0
M  V30 55 H -2.838369 1.671884 -0.288831 0
M  V30 56 H -4.272353 1.234032 -1.228563 0
M  V30 57 H -1.577626 -0.216582 -0.879015 0
M  V30 58 H -1.640308 -1.559824 0.284840 0
M  V30 59 H -3.211489 -3.886129 1.868584 0
M  V30 60 H -4.308543 -3.886196 4.022507 0
M  V30 61 H -5.105432 -1.711593 4.931260 0
M  V30 62 H -4.781231 0.395189 3.659386 0
M  V30 63 H -3.655565 0.288578 1.480962 0
M  V30 64 H -0.507446 -3.491805 0.268401 0
M  V30 65 H -0.191963 -5.779697 -0.386463 0
M  V30 66 H -2.154377 -7.049196 -1.316441 0
M  V30 67 H -4.376854 -5.897705 -1.534150 0
M  V30 68 H -4.616864 -3.551517 -0.840325 0
M  V30 69 H -3.501271 -0.504777 -3.240010 0
M  V30 70 H -2.146744 -1.603161 -2.883498 0
M  V30 71 H -0.598234 -0.192183 -3.685780 0
M  V30 72 H -1.961667 0.592703 -4.481287 0
M  V30 73 H 2.561634 3.057822 1.190742 0
M  V30 74 H 3.703583 1.916591 3.023991 0
M  V30 END ATOM
M  V30 BEGIN BOND
M  V30 1 1 1 2
M  V30 2 1 2 3
M  V30 3 1 2 4
M  V30 4 1 2 5
M  V30 5 2 5 6
M  V30 6 1 6 7
M  V30 7 2 7 8
M  V30 8 1 8 9
M  V30 9 2 9 10
M  V30 10 1 9 11
M  V30 11 1 11 12
M  V30 12 1 12 13
M  V30 13 1 13 14
M  V30 14 1 14 15
M  V30 15 1 15 16
M  V30 16 1 16 17
M  V30 17 1 17 18
M  V30 18 1 18 19
M  V30 19 1 19 20
M  V30 20 2 20 21
M  V30 21 1 21 22
M  V30 22 2 22 23
M  V30 23 1 23 24
M  V30 24 2 24 25
M  V30 25 1 19 26
M  V30 26 2 26 27
M  V30 27 1 27 28
M  V30 28 2 28 29
M  V30 29 1 29 30
M  V30 30 2 30 31
M  V30 31 1 17 32
M  V30 32 1 32 33
M  V30 33 1 8 34
M  V30 34 2 34 35
M  V30 35 1 35 5
M  V30 36 1 33 14
M  V30 37 1 25 20
M  V30 38 1 31 26
M  V30 39 1 1 36
M  V30 40 1 1 37
M  V30 41 1 1 38
M  V30 42 1 3 39
M  V30 43 1 3 40
M  V30 44 1 3 41
M  V30 45 1 4 42
M  V30 46 1 4 43
M  V30 47 1 4 44
M  V30 48 1 6 45
M  V30 49 1 7 46
M  V30 50 1 11 47
M  V30 51 1 11 48
M  V30 52 1 12 49
M  V30 53 1 12 50
M  V30 54 1 13 51
M  V30 55 1 13 52
M  V30 56 1 15 53
M  V30 57 1 15 54
M  V30 58 1 16 55
M  V30 59 1 16 56
M  V30 60 1 17 57
M  V30 61 1 19 58
M  V30 62 1 21 59
M  V30 63 1 22 60
M  V30 64 1 23 61
M  V30 65 1 24 62
M  V30 66 1 25 63
M  V30 67 1 27 64
M  V30 68 1 28 65
M  V30 69 1 29 66
M  V30 70 1 30 67
M  V30 71 1 31 68
M  V30 72 1 32 69
M  V30 73 1 32 70
M  V30 74 1 33 71
M  V30 75 1 33 72
M  V30 76 1 34 73
M  V30 77 1 35 74
M  V30 END BOND
M  V30 END CTAB
M  END
>  <Dataset>  (320) 
OralDrugs

>  <Ligand_Instance>  (320) 
nan

>  <PDB_ID>  (320) 
nan

>  <Standardized_SMILES>  (320) 
CC(C)(C)c1ccc(C(=O)CCCN2CCC(OC(c3ccccc3)c3ccccc3)CC2)cc1

>  <Name>  (320) 
Ebastine

>  <Pocket>  (320) 
nan

>  <ATP_Site>  (320) 
nan

>  <Peripheral>  (320) 
nan

>  <Num_H_Atoms_ProtBoundConf>  (320) 
nan

>  <Num_Resolved_Atoms>  (320) 
nan

>  <Num_Not_Resolved_Atoms>  (320) 
nan

$$$$
CHEMBL1200375
     RDKit          3D

  0  0  0  0  0  0  0  0  0  0999 V3000
M  V30 BEGIN CTAB
M  V30 COUNTS 36 35 0 0 0
M  V30 BEGIN ATOM
M  V30 1 O 0.761697 -1.511133 4.030252 0
M  V30 2 C -0.430185 -1.849422 3.697498 0
M  V30 3 O -0.935650 -1.668358 4.959982 0
M  V30 4 C -1.038651 -2.277215 2.430006 0
M  V30 5 N -0.141780 -2.474604 1.337869 0
M  V30 6 C 0.445563 -1.211208 0.893741 0
M  V30 7 C -0.530850 -0.290522 0.230795 0
M  V30 8 N 0.045696 0.924766 -0.191234 0
M  V30 9 C 0.973959 0.897454 -1.246471 0
M  V30 10 C 0.269574 0.531322 -2.517171 0
M  V30 11 O 1.042902 0.490330 -3.519512 0
M  V30 12 O -1.064539 0.224543 -2.822912 0
M  V30 13 C -0.548005 2.142677 0.190586 0
M  V30 14 C 0.115219 3.376310 -0.244001 0
M  V30 15 O -0.539637 4.370927 0.231901 0
M  V30 16 O 1.091863 4.090225 -0.904561 0
M  V30 17 C 0.960888 -3.351381 1.663279 0
M  V30 18 C 1.721222 -3.685221 0.430907 0
M  V30 19 O 1.383543 -3.443010 -0.766917 0
M  V30 20 O 2.893406 -4.281956 0.086956 0
M  V30 21 H -1.146879 -0.779897 5.392225 0
M  V30 22 H -1.530076 -3.276261 2.621977 0
M  V30 23 H -1.876935 -1.619933 2.086027 0
M  V30 24 H 0.786882 -0.725195 1.837198 0
M  V30 25 H 1.257002 -1.437553 0.207241 0
M  V30 26 H -1.452114 -0.093549 0.827150 0
M  V30 27 H -0.898239 -0.822651 -0.697758 0
M  V30 28 H 1.790348 0.154757 -1.144725 0
M  V30 29 H 1.464907 1.858664 -1.446777 0
M  V30 30 H -1.266499 -0.548853 -3.465962 0
M  V30 31 H -0.760114 2.153939 1.298208 0
M  V30 32 H -1.586372 2.159708 -0.256865 0
M  V30 33 H 0.961994 4.697298 -1.679160 0
M  V30 34 H 1.642591 -2.768759 2.345457 0
M  V30 35 H 0.630124 -4.304823 2.113630 0
M  V30 36 H 3.720815 -3.778291 -0.213878 0
M  V30 END ATOM
M  V30 BEGIN BOND
M  V30 1 2 1 2
M  V30 2 1 2 3
M  V30 3 1 2 4
M  V30 4 1 4 5
M  V30 5 1 5 6
M  V30 6 1 6 7
M  V30 7 1 7 8
M  V30 8 1 8 9
M  V30 9 1 9 10
M  V30 10 2 10 11
M  V30 11 1 10 12
M  V30 12 1 8 13
M  V30 13 1 13 14
M  V30 14 2 14 15
M  V30 15 1 14 16
M  V30 16 1 5 17
M  V30 17 1 17 18
M  V30 18 2 18 19
M  V30 19 1 18 20
M  V30 20 1 3 21
M  V30 21 1 4 22
M  V30 22 1 4 23
M  V30 23 1 6 24
M  V30 24 1 6 25
M  V30 25 1 7 26
M  V30 26 1 7 27
M  V30 27 1 9 28
M  V30 28 1 9 29
M  V30 29 1 12 30
M  V30 30 1 13 31
M  V30 31 1 13 32
M  V30 32 1 16 33
M  V30 33 1 17 34
M  V30 34 1 17 35
M  V30 35 1 20 36
M  V30 END BOND
M  V30 END CTAB
M  END
>  <Dataset>  (321) 
OralDrugs

>  <Ligand_Instance>  (321) 
nan

>  <PDB_ID>  (321) 
nan

>  <Standardized_SMILES>  (321) 
O=C(O)CN(CCN(CC(=O)O)CC(=O)O)CC(=O)O

>  <Name>  (321) 
Edetate Calcium Disodium Anhydrous

>  <Pocket>  (321) 
nan

>  <ATP_Site>  (321) 
nan

>  <Peripheral>  (321) 
nan

>  <Num_H_Atoms_ProtBoundConf>  (321) 
nan

>  <Num_Resolved_Atoms>  (321) 
nan

>  <Num_Not_Resolved_Atoms>  (321) 
nan

$$$$
CHEMBL1269025
     RDKit          3D

  0  0  0  0  0  0  0  0  0  0999 V3000
M  V30 BEGIN CTAB
M  V30 COUNTS 67 70 0 0 0
M  V30 BEGIN ATOM
M  V30 1 C 7.024833 -0.757591 5.603064 0
M  V30 2 N 5.731797 -1.081125 5.012829 0
M  V30 3 C 4.966414 0.104922 4.775675 0
M  V30 4 C 5.047243 0.504089 3.294686 0
M  V30 5 C 4.291166 -0.567616 2.563032 0
M  V30 6 N 3.289162 -0.460304 1.712403 0
M  V30 7 C 2.769170 -1.398103 1.192458 0
M  V30 8 C 1.726476 -1.850460 0.252769 0
M  V30 9 O 1.485311 -3.047611 -0.056946 0
M  V30 10 N 0.888309 -0.884212 -0.392450 0
M  V30 11 C -0.141052 -1.218473 -1.322103 0 CFG=2
M  V30 12 C 0.112812 -0.573063 -2.690768 0
M  V30 13 C 0.302382 0.908434 -2.532372 0 CFG=1
M  V30 14 C 0.060943 1.520878 -3.875806 0
M  V30 15 O -0.210093 0.483601 -4.575118 0
M  V30 16 N 0.089220 2.845072 -4.371417 0
M  V30 17 C 0.378835 4.106687 -3.691616 0
M  V30 18 C -0.219084 2.967288 -5.772536 0
M  V30 19 C -0.537721 1.589295 -1.528843 0
M  V30 20 C -1.207821 0.809244 -0.470328 0
M  V30 21 C -1.450653 -0.614974 -0.881551 0 CFG=2
M  V30 22 N -2.058676 -1.302114 0.244609 0
M  V30 23 C -3.387840 -1.772246 -0.021975 0
M  V30 24 O -3.993783 -1.611168 -1.138650 0
M  V30 25 C -4.105203 -2.481536 1.040286 0
M  V30 26 O -3.668379 -2.726909 2.214540 0
M  V30 27 N -5.402245 -2.972830 0.829954 0
M  V30 28 C -6.259864 -3.674173 1.715979 0
M  V30 29 C -7.521118 -4.128290 1.405429 0
M  V30 30 C -8.306359 -4.796466 2.299194 0
M  V30 31 C -7.829027 -5.030777 3.561399 0
M  V30 32 Cl -8.795716 -5.885870 4.769245 0
M  V30 33 C -6.558176 -4.571529 3.868778 0
M  V30 34 N -5.770732 -3.902397 2.974210 0
M  V30 35 S 3.734055 -2.871531 1.902607 0
M  V30 36 C 4.804967 -1.852949 2.901090 0
M  V30 37 C 5.906782 -1.905353 3.841579 0
M  V30 38 H 6.884681 -0.923011 6.701661 0
M  V30 39 H 7.767613 -1.475470 5.209008 0
M  V30 40 H 7.313081 0.278885 5.446557 0
M  V30 41 H 3.901433 -0.096006 5.002333 0
M  V30 42 H 5.273483 0.975413 5.391861 0
M  V30 43 H 6.096414 0.389024 2.999708 0
M  V30 44 H 4.616209 1.505625 3.138578 0
M  V30 45 H 1.115790 0.113716 -0.122247 0
M  V30 46 H -0.169779 -2.299475 -1.478760 0
M  V30 47 H 0.992925 -0.986618 -3.194228 0
M  V30 48 H -0.775236 -0.831438 -3.304805 0
M  V30 49 H 1.411406 1.057987 -2.345104 0
M  V30 50 H -0.563302 4.709498 -3.560430 0
M  V30 51 H 0.773982 3.941594 -2.667931 0
M  V30 52 H 1.072464 4.727860 -4.322252 0
M  V30 53 H -0.653099 3.959284 -6.018962 0
M  V30 54 H -0.913196 2.170531 -6.114665 0
M  V30 55 H 0.700736 2.881311 -6.410179 0
M  V30 56 H -1.295471 2.218647 -2.088498 0
M  V30 57 H 0.143578 2.339408 -0.993226 0
M  V30 58 H -2.217004 1.280983 -0.290200 0
M  V30 59 H -0.607085 0.840610 0.470298 0
M  V30 60 H -2.163032 -0.588154 -1.753700 0
M  V30 61 H -1.607724 -1.460352 1.167514 0
M  V30 62 H -5.836117 -2.808524 -0.128929 0
M  V30 63 H -7.887798 -3.933750 0.384934 0
M  V30 64 H -9.288163 -5.125216 1.993253 0
M  V30 65 H -6.121897 -4.722681 4.847202 0
M  V30 66 H 6.841069 -1.582703 3.320289 0
M  V30 67 H 6.018467 -2.957033 4.172357 0
M  V30 END ATOM
M  V30 BEGIN BOND
M  V30 1 1 1 2
M  V30 2 1 2 3
M  V30 3 1 3 4
M  V30 4 1 4 5
M  V30 5 1 5 6
M  V30 6 2 6 7
M  V30 7 1 7 8
M  V30 8 2 8 9
M  V30 9 1 8 10
M  V30 10 1 10 11
M  V30 11 1 11 12
M  V30 12 1 12 13
M  V30 13 1 13 14
M  V30 14 2 14 15
M  V30 15 1 14 16
M  V30 16 1 16 17
M  V30 17 1 16 18
M  V30 18 1 13 19
M  V30 19 1 19 20
M  V30 20 1 20 21
M  V30 21 1 21 22
M  V30 22 1 22 23
M  V30 23 2 23 24
M  V30 24 1 23 25
M  V30 25 2 25 26
M  V30 26 1 25 27
M  V30 27 1 27 28
M  V30 28 2 28 29
M  V30 29 1 29 30
M  V30 30 2 30 31
M  V30 31 1 31 32
M  V30 32 1 31 33
M  V30 33 2 33 34
M  V30 34 1 7 35
M  V30 35 1 35 36
M  V30 36 1 36 37
M  V30 37 1 37 2
M  V30 38 2 36 5
M  V30 39 1 21 11
M  V30 40 1 34 28
M  V30 41 1 1 38
M  V30 42 1 1 39
M  V30 43 1 1 40
M  V30 44 1 3 41
M  V30 45 1 3 42
M  V30 46 1 4 43
M  V30 47 1 4 44
M  V30 48 1 10 45
M  V30 49 1 11 46 CFG=3
M  V30 50 1 12 47
M  V30 51 1 12 48
M  V30 52 1 13 49 CFG=1
M  V30 53 1 17 50
M  V30 54 1 17 51
M  V30 55 1 17 52
M  V30 56 1 18 53
M  V30 57 1 18 54
M  V30 58 1 18 55
M  V30 59 1 19 56
M  V30 60 1 19 57
M  V30 61 1 20 58
M  V30 62 1 20 59
M  V30 63 1 21 60 CFG=3
M  V30 64 1 22 61
M  V30 65 1 27 62
M  V30 66 1 29 63
M  V30 67 1 30 64
M  V30 68 1 33 65
M  V30 69 1 37 66
M  V30 70 1 37 67
M  V30 END BOND
M  V30 END CTAB
M  END
>  <Dataset>  (322) 
OralDrugs

>  <Ligand_Instance>  (322) 
nan

>  <PDB_ID>  (322) 
nan

>  <Standardized_SMILES>  (322) 
CN1CCc2nc(C(=O)N[C@@H]3C[C@@H](C(=O)N(C)C)CC[C@@H]3NC(=O)C(=O)Nc3ccc(Cl)cn3)sc2C1

>  <Name>  (322) 
Edoxaban

>  <Pocket>  (322) 
nan

>  <ATP_Site>  (322) 
nan

>  <Peripheral>  (322) 
nan

>  <Num_H_Atoms_ProtBoundConf>  (322) 
nan

>  <Num_Resolved_Atoms>  (322) 
nan

>  <Num_Not_Resolved_Atoms>  (322) 
nan

$$$$
CHEMBL223228
     RDKit          3D

  0  0  0  0  0  0  0  0  0  0999 V3000
M  V30 BEGIN CTAB
M  V30 COUNTS 30 32 0 0 0
M  V30 BEGIN ATOM
M  V30 1 O -2.397913 -2.469559 3.491976 0
M  V30 2 C -1.554389 -2.349416 2.563325 0
M  V30 3 N -0.456275 -3.234354 2.391118 0
M  V30 4 C 0.438058 -3.014880 1.312581 0
M  V30 5 C 1.484064 -3.903828 1.239123 0
M  V30 6 C 2.414851 -3.745719 0.232980 0
M  V30 7 C 2.260387 -2.705961 -0.656452 0
M  V30 8 Cl 3.449154 -2.536078 -1.908747 0
M  V30 9 C 1.188531 -1.853309 -0.523954 0
M  V30 10 C 0.229014 -1.960345 0.456708 0
M  V30 11 C -0.923334 -1.028431 0.558286 0 CFG=1
M  V30 12 C -0.517582 0.381383 0.525126 0
M  V30 13 C -0.164074 1.537705 0.504296 0
M  V30 14 C 0.273446 2.947201 0.503788 0
M  V30 15 C 1.460022 3.266690 1.472897 0
M  V30 16 C 0.079175 3.729573 1.740253 0
M  V30 17 C -1.789007 -1.250651 -0.670655 0
M  V30 18 F -1.038995 -0.982712 -1.790442 0
M  V30 19 F -2.053853 -2.615029 -0.691756 0
M  V30 20 F -2.945723 -0.515819 -0.643124 0
M  V30 21 O -1.724343 -1.310194 1.691718 0
M  V30 22 H -0.351822 -4.012387 3.067195 0
M  V30 23 H 1.617724 -4.724477 1.930577 0
M  V30 24 H 3.243273 -4.426290 0.151385 0
M  V30 25 H 1.159748 -1.070300 -1.265825 0
M  V30 26 H 0.374405 3.453436 -0.490226 0
M  V30 27 H 2.227881 3.953249 1.118816 0
M  V30 28 H 1.823146 2.381682 2.059423 0
M  V30 29 H -0.086517 4.817624 1.680407 0
M  V30 30 H -0.516176 3.224054 2.532109 0
M  V30 END ATOM
M  V30 BEGIN BOND
M  V30 1 2 1 2
M  V30 2 1 2 3
M  V30 3 1 3 4
M  V30 4 2 4 5
M  V30 5 1 5 6
M  V30 6 2 6 7
M  V30 7 1 7 8
M  V30 8 1 7 9
M  V30 9 2 9 10
M  V30 10 1 10 11
M  V30 11 1 11 12 CFG=1
M  V30 12 3 12 13
M  V30 13 1 13 14
M  V30 14 1 14 15
M  V30 15 1 15 16
M  V30 16 1 11 17
M  V30 17 1 17 18
M  V30 18 1 17 19
M  V30 19 1 17 20
M  V30 20 1 11 21
M  V30 21 1 21 2
M  V30 22 1 10 4
M  V30 23 1 16 14
M  V30 24 1 3 22
M  V30 25 1 5 23
M  V30 26 1 6 24
M  V30 27 1 9 25
M  V30 28 1 14 26
M  V30 29 1 15 27
M  V30 30 1 15 28
M  V30 31 1 16 29
M  V30 32 1 16 30
M  V30 END BOND
M  V30 END CTAB
M  END
>  <Dataset>  (323) 
OralDrugs

>  <Ligand_Instance>  (323) 
nan

>  <PDB_ID>  (323) 
nan

>  <Standardized_SMILES>  (323) 
O=C1Nc2ccc(Cl)cc2[C@@](C#CC2CC2)(C(F)(F)F)O1

>  <Name>  (323) 
Efavirenz

>  <Pocket>  (323) 
nan

>  <ATP_Site>  (323) 
nan

>  <Peripheral>  (323) 
nan

>  <Num_H_Atoms_ProtBoundConf>  (323) 
nan

>  <Num_Resolved_Atoms>  (323) 
nan

>  <Num_Not_Resolved_Atoms>  (323) 
nan

$$$$
CHEMBL4297509
     RDKit          3D

  0  0  0  0  0  0  0  0  0  0999 V3000
M  V30 BEGIN CTAB
M  V30 COUNTS 72 75 0 0 0
M  V30 BEGIN ATOM
M  V30 1 C 3.645720 -4.858226 3.513691 0
M  V30 2 C 4.358436 -3.696801 2.881403 0
M  V30 3 N 4.346670 -3.836642 1.439425 0
M  V30 4 C 5.024739 -2.758370 0.781658 0
M  V30 5 C 4.341129 -1.436695 0.888094 0
M  V30 6 C 2.995907 -1.377218 0.320088 0
M  V30 7 C 1.843168 -1.621946 1.025975 0
M  V30 8 C 0.588351 -1.569289 0.475762 0
M  V30 9 C 0.375250 -1.262973 -0.844542 0
M  V30 10 C -0.795737 -1.101686 -1.743259 0
M  V30 11 N -1.213064 0.285406 -1.845312 0
M  V30 12 C -1.552123 0.592657 -3.244486 0
M  V30 13 C -2.761051 -0.092819 -3.762628 0
M  V30 14 C -1.408862 1.447276 -1.089937 0
M  V30 15 C -0.356999 2.349765 -1.298944 0
M  V30 16 C -0.253072 3.570040 -0.716019 0
M  V30 17 O 0.769477 4.478745 -0.900438 0
M  V30 18 C 1.890523 4.331374 -1.712711 0
M  V30 19 C -1.291862 3.904102 0.143001 0
M  V30 20 C -2.338414 3.019825 0.357737 0
M  V30 21 C -2.418435 1.762123 -0.259320 0
M  V30 22 C -3.611331 1.085871 0.188621 0 CFG=2
M  V30 23 C -3.624509 1.005917 1.732464 0
M  V30 24 C -2.527286 0.147029 2.257319 0
M  V30 25 C -2.916619 -1.278473 2.027111 0
M  V30 26 C -2.712533 -2.386296 2.802608 0
M  V30 27 C -3.151710 -3.622429 2.384222 0
M  V30 28 O -2.881692 -4.662967 3.263134 0
M  V30 29 C -3.804526 -3.705837 1.156330 0
M  V30 30 C -3.997828 -2.568184 0.391881 0
M  V30 31 C -3.549484 -1.300451 0.816886 0
M  V30 32 C -3.909515 -0.295790 -0.223377 0
M  V30 33 C 1.555621 -1.010761 -1.574446 0
M  V30 34 C 2.831846 -1.061493 -1.028047 0
M  V30 35 H 2.856681 -4.550600 4.242891 0
M  V30 36 H 3.163403 -5.458453 2.733458 0
M  V30 37 H 4.407995 -5.451149 4.062399 0
M  V30 38 H 3.822461 -2.769148 3.162798 0
M  V30 39 H 5.424525 -3.613547 3.185979 0
M  V30 40 H 4.669844 -4.750913 1.117452 0
M  V30 41 H 5.217471 -3.056377 -0.269969 0
M  V30 42 H 6.028516 -2.651217 1.242336 0
M  V30 43 H 5.010385 -0.685487 0.408695 0
M  V30 44 H 4.361308 -1.153577 1.977839 0
M  V30 45 H 1.885125 -1.870800 2.062737 0
M  V30 46 H -0.363179 -1.747893 0.941314 0
M  V30 47 H -0.589644 -1.593313 -2.689129 0
M  V30 48 H -1.601599 -1.733624 -1.260597 0
M  V30 49 H -1.628709 1.651885 -3.476314 0
M  V30 50 H -0.692195 0.234111 -3.900781 0
M  V30 51 H -2.745855 -0.002308 -4.872805 0
M  V30 52 H -2.811572 -1.181465 -3.553189 0
M  V30 53 H -3.721669 0.424300 -3.470390 0
M  V30 54 H 0.487510 2.126245 -1.972820 0
M  V30 55 H 2.784764 4.887622 -1.318186 0
M  V30 56 H 2.138615 3.259763 -1.793795 0
M  V30 57 H 1.700821 4.680673 -2.755379 0
M  V30 58 H -1.226546 4.888772 0.626330 0
M  V30 59 H -3.060902 3.455265 1.058850 0
M  V30 60 H -4.511685 1.758776 -0.012331 0
M  V30 61 H -4.580010 0.442504 1.974779 0
M  V30 62 H -3.764951 1.971178 2.210481 0
M  V30 63 H -1.561053 0.286086 1.743578 0
M  V30 64 H -2.387843 0.329294 3.323025 0
M  V30 65 H -2.186668 -2.136237 3.728610 0
M  V30 66 H -2.094748 -5.278487 3.112558 0
M  V30 67 H -4.116841 -4.693730 0.895707 0
M  V30 68 H -4.522942 -2.819579 -0.533803 0
M  V30 69 H -5.060096 -0.353878 -0.214782 0
M  V30 70 H -3.671007 -0.617227 -1.224233 0
M  V30 71 H 1.606468 -0.749436 -2.645603 0
M  V30 72 H 3.725909 -0.870944 -1.581023 0
M  V30 END ATOM
M  V30 BEGIN BOND
M  V30 1 1 1 2
M  V30 2 1 2 3
M  V30 3 1 3 4
M  V30 4 1 4 5
M  V30 5 1 5 6
M  V30 6 2 6 7
M  V30 7 1 7 8
M  V30 8 2 8 9
M  V30 9 1 9 10
M  V30 10 1 10 11
M  V30 11 1 11 12
M  V30 12 1 12 13
M  V30 13 1 11 14
M  V30 14 2 14 15
M  V30 15 1 15 16
M  V30 16 1 16 17
M  V30 17 1 17 18
M  V30 18 2 16 19
M  V30 19 1 19 20
M  V30 20 2 20 21
M  V30 21 1 21 22
M  V30 22 1 22 23
M  V30 23 1 23 24
M  V30 24 1 24 25
M  V30 25 2 25 26
M  V30 26 1 26 27
M  V30 27 1 27 28
M  V30 28 2 27 29
M  V30 29 1 29 30
M  V30 30 2 30 31
M  V30 31 1 31 32
M  V30 32 1 9 33
M  V30 33 2 33 34
M  V30 34 1 34 6
M  V30 35 1 21 14
M  V30 36 1 32 22
M  V30 37 1 31 25
M  V30 38 1 1 35
M  V30 39 1 1 36
M  V30 40 1 1 37
M  V30 41 1 2 38
M  V30 42 1 2 39
M  V30 43 1 3 40
M  V30 44 1 4 41
M  V30 45 1 4 42
M  V30 46 1 5 43
M  V30 47 1 5 44
M  V30 48 1 7 45
M  V30 49 1 8 46
M  V30 50 1 10 47
M  V30 51 1 10 48
M  V30 52 1 12 49
M  V30 53 1 12 50
M  V30 54 1 13 51
M  V30 55 1 13 52
M  V30 56 1 13 53
M  V30 57 1 15 54
M  V30 58 1 18 55
M  V30 59 1 18 56
M  V30 60 1 18 57
M  V30 61 1 19 58
M  V30 62 1 20 59
M  V30 63 1 22 60 CFG=1
M  V30 64 1 23 61
M  V30 65 1 23 62
M  V30 66 1 24 63
M  V30 67 1 24 64
M  V30 68 1 26 65
M  V30 69 1 28 66
M  V30 70 1 29 67
M  V30 71 1 30 68
M  V30 72 1 32 69
M  V30 73 1 32 70
M  V30 74 1 33 71
M  V30 75 1 34 72
M  V30 END BOND
M  V30 END CTAB
M  END
>  <Dataset>  (324) 
OralDrugs

>  <Ligand_Instance>  (324) 
nan

>  <PDB_ID>  (324) 
nan

>  <Standardized_SMILES>  (324) 
CCNCCc1ccc(CN(CC)c2cc(OC)ccc2[C@@H]2CCc3cc(O)ccc3C2)cc1

>  <Name>  (324) 
Elacestrant

>  <Pocket>  (324) 
nan

>  <ATP_Site>  (324) 
nan

>  <Peripheral>  (324) 
nan

>  <Num_H_Atoms_ProtBoundConf>  (324) 
nan

>  <Num_Resolved_Atoms>  (324) 
nan

>  <Num_Not_Resolved_Atoms>  (324) 
nan

$$$$
CHEMBL1208155
     RDKit          3D

  0  0  0  0  0  0  0  0  0  0999 V3000
M  V30 BEGIN CTAB
M  V30 COUNTS 75 78 0 0 0
M  V30 BEGIN ATOM
M  V30 1 C 3.173635 -6.404266 -2.855387 0
M  V30 2 O 2.461261 -5.219958 -2.542446 0
M  V30 3 C 1.373689 -5.243039 -1.679648 0
M  V30 4 C 0.971103 -6.436267 -1.111457 0
M  V30 5 C -0.103451 -6.526368 -0.244651 0
M  V30 6 C -0.793735 -5.352249 0.053627 0
M  V30 7 C -0.430899 -4.136068 -0.487962 0
M  V30 8 C -1.172701 -2.917579 -0.156423 0
M  V30 9 C -2.286827 -2.381124 -0.823222 0
M  V30 10 C -2.623397 -3.309816 -1.918207 0
M  V30 11 N -2.859227 -1.223545 -0.373120 0
M  V30 12 C -3.966614 -0.759572 -1.164909 0
M  V30 13 C -3.630036 0.323322 -2.104096 0
M  V30 14 C -2.736715 0.329863 -3.140535 0
M  V30 15 F -1.974948 -0.749580 -3.328277 0
M  V30 16 C -2.496287 1.339169 -4.045725 0
M  V30 17 C -3.214801 2.487765 -3.928139 0
M  V30 18 C -4.134198 2.560310 -2.912007 0
M  V30 19 C -4.373985 1.522280 -1.991957 0
M  V30 20 C -5.443327 1.761203 -1.000003 0
M  V30 21 F -6.467445 0.805160 -1.150154 0
M  V30 22 F -6.087758 2.960263 -1.331840 0
M  V30 23 F -5.055543 1.894935 0.287360 0
M  V30 24 C -2.278340 -0.694201 0.705266 0
M  V30 25 O -2.758470 0.349624 1.150429 0
M  V30 26 N -1.219638 -1.153471 1.385709 0
M  V30 27 C -0.717237 -0.445281 2.546763 0
M  V30 28 C 0.326596 0.588644 2.200563 0 CFG=2
M  V30 29 N 1.491233 0.035389 1.557196 0
M  V30 30 C 2.438811 1.117620 1.271291 0
M  V30 31 C 3.683285 0.575302 0.604760 0
M  V30 32 C 4.678833 1.651243 0.288565 0
M  V30 33 C 5.156328 2.397968 1.476419 0
M  V30 34 O 4.305272 3.266143 1.838720 0
M  V30 35 O 5.739177 3.001652 2.579357 0
M  V30 36 C 0.750300 1.281272 3.443845 0
M  V30 37 C 1.639817 0.600582 4.246044 0
M  V30 38 C 2.044921 1.227413 5.401351 0
M  V30 39 C 1.607393 2.486362 5.785947 0
M  V30 40 C 0.715358 3.152415 4.967332 0
M  V30 41 C 0.286992 2.542018 3.789860 0
M  V30 42 C -0.616392 -2.303822 0.971585 0
M  V30 43 O 0.373561 -2.719786 1.619479 0
M  V30 44 C 0.659943 -4.108650 -1.354627 0
M  V30 45 F 1.052972 -2.934017 -1.911731 0
M  V30 46 H 3.587469 -6.905703 -1.969214 0
M  V30 47 H 2.538006 -7.159797 -3.366843 0
M  V30 48 H 3.998253 -6.128919 -3.556844 0
M  V30 49 H 1.539592 -7.343006 -1.369280 0
M  V30 50 H -0.421595 -7.465250 0.203557 0
M  V30 51 H -1.617071 -5.444547 0.722550 0
M  V30 52 H -3.531338 -3.120010 -2.472489 0
M  V30 53 H -2.708807 -4.367848 -1.546737 0
M  V30 54 H -1.715857 -3.355430 -2.593984 0
M  V30 55 H -4.433555 -1.559084 -1.768249 0
M  V30 56 H -4.715234 -0.391276 -0.398164 0
M  V30 57 H -1.773649 1.262479 -4.833765 0
M  V30 58 H -3.068254 3.311784 -4.608829 0
M  V30 59 H -4.686100 3.513333 -2.864859 0
M  V30 60 H -1.578148 0.125559 2.972548 0
M  V30 61 H -0.317635 -1.141789 3.314918 0
M  V30 62 H -0.110731 1.386938 1.554107 0
M  V30 63 H 1.218059 -0.319152 0.607475 0
M  V30 64 H 2.728972 1.589456 2.232648 0
M  V30 65 H 1.914998 1.851097 0.662096 0
M  V30 66 H 4.182224 -0.157128 1.260607 0
M  V30 67 H 3.397881 0.102350 -0.334182 0
M  V30 68 H 5.575875 1.117760 -0.142590 0
M  V30 69 H 4.325754 2.368530 -0.493317 0
M  V30 70 H 6.677199 3.420794 2.513286 0
M  V30 71 H 2.056408 -0.377321 4.065719 0
M  V30 72 H 2.745713 0.773617 6.103109 0
M  V30 73 H 1.944090 2.965964 6.711088 0
M  V30 74 H 0.317695 4.133705 5.178858 0
M  V30 75 H -0.402609 2.992520 3.102681 0
M  V30 END ATOM
M  V30 BEGIN BOND
M  V30 1 1 1 2
M  V30 2 1 2 3
M  V30 3 2 3 4
M  V30 4 1 4 5
M  V30 5 2 5 6
M  V30 6 1 6 7
M  V30 7 1 7 8
M  V30 8 2 8 9
M  V30 9 1 9 10
M  V30 10 1 9 11
M  V30 11 1 11 12
M  V30 12 1 12 13
M  V30 13 2 13 14
M  V30 14 1 14 15
M  V30 15 1 14 16
M  V30 16 2 16 17
M  V30 17 1 17 18
M  V30 18 2 18 19
M  V30 19 1 19 20
M  V30 20 1 20 21
M  V30 21 1 20 22
M  V30 22 1 20 23
M  V30 23 1 11 24
M  V30 24 2 24 25
M  V30 25 1 24 26
M  V30 26 1 26 27
M  V30 27 1 27 28
M  V30 28 1 28 29
M  V30 29 1 29 30
M  V30 30 1 30 31
M  V30 31 1 31 32
M  V30 32 1 32 33
M  V30 33 2 33 34
M  V30 34 1 33 35
M  V30 35 1 28 36
M  V30 36 2 36 37
M  V30 37 1 37 38
M  V30 38 2 38 39
M  V30 39 1 39 40
M  V30 40 2 40 41
M  V30 41 1 26 42
M  V30 42 2 42 43
M  V30 43 2 7 44
M  V30 44 1 44 45
M  V30 45 1 44 3
M  V30 46 1 42 8
M  V30 47 1 19 13
M  V30 48 1 41 36
M  V30 49 1 1 46
M  V30 50 1 1 47
M  V30 51 1 1 48
M  V30 52 1 4 49
M  V30 53 1 5 50
M  V30 54 1 6 51
M  V30 55 1 10 52
M  V30 56 1 10 53
M  V30 57 1 10 54
M  V30 58 1 12 55
M  V30 59 1 12 56
M  V30 60 1 16 57
M  V30 61 1 17 58
M  V30 62 1 18 59
M  V30 63 1 27 60
M  V30 64 1 27 61
M  V30 65 1 28 62 CFG=3
M  V30 66 1 29 63
M  V30 67 1 30 64
M  V30 68 1 30 65
M  V30 69 1 31 66
M  V30 70 1 31 67
M  V30 71 1 32 68
M  V30 72 1 32 69
M  V30 73 1 35 70
M  V30 74 1 37 71
M  V30 75 1 38 72
M  V30 76 1 39 73
M  V30 77 1 40 74
M  V30 78 1 41 75
M  V30 END BOND
M  V30 END CTAB
M  END
>  <Dataset>  (325) 
OralDrugs

>  <Ligand_Instance>  (325) 
nan

>  <PDB_ID>  (325) 
nan

>  <Standardized_SMILES>  (325) 
COc1cccc(-c2c(C)n(Cc3c(F)cccc3C(F)(F)F)c(=O)n(C[C@H](NCCCC(=O)O)c3ccccc3)c2=O)c1F

>  <Name>  (325) 
Elagolix

>  <Pocket>  (325) 
nan

>  <ATP_Site>  (325) 
nan

>  <Peripheral>  (325) 
nan

>  <Num_H_Atoms_ProtBoundConf>  (325) 
nan

>  <Num_Resolved_Atoms>  (325) 
nan

>  <Num_Not_Resolved_Atoms>  (325) 
nan

$$$$
CHEMBL3039514
     RDKit          3D

  0  0  0  0  0  0  0  0  0  0999 V3000
M  V30 BEGIN CTAB
M  V30 COUNTS 120 128 0 0 0
M  V30 BEGIN ATOM
M  V30 1 C 5.058230 -3.196242 5.863284 0
M  V30 2 O 5.864126 -2.532819 4.907601 0
M  V30 3 C 6.697014 -1.472508 5.157312 0
M  V30 4 O 6.629093 -1.186800 6.361010 0
M  V30 5 N 7.445138 -0.918055 4.073290 0
M  V30 6 C 8.347748 0.227329 4.337135 0 CFG=2
M  V30 7 C 8.097069 1.303945 3.383981 0
M  V30 8 O 7.308161 0.564439 2.724040 0
M  V30 9 N 8.411142 2.633545 3.061605 0
M  V30 10 C 9.223631 3.744267 3.584708 0
M  V30 11 C 9.922089 4.283103 2.356768 0
M  V30 12 C 9.057307 3.809488 1.179800 0
M  V30 13 C 7.853123 3.285237 1.897285 0 CFG=1
M  V30 14 C 7.102481 2.360431 1.020615 0
M  V30 15 N 5.807062 2.030596 1.027228 0
M  V30 16 C 5.491684 1.164589 0.067449 0
M  V30 17 C 4.148102 0.598690 -0.192038 0
M  V30 18 C 3.156871 1.024977 0.664160 0
M  V30 19 C 1.920467 0.474821 0.394849 0
M  V30 20 C 1.705335 -0.427991 -0.650910 0
M  V30 21 C 2.741777 -0.805420 -1.463424 0
M  V30 22 C 4.002797 -0.289084 -1.242460 0
M  V30 23 O 2.502029 -1.682041 -2.472256 0
M  V30 24 C 1.293567 -2.308800 -2.763631 0 CFG=1
M  V30 25 C 1.486114 -3.792573 -2.842312 0
M  V30 26 C 2.197339 -4.408998 -1.802638 0
M  V30 27 C 2.433679 -5.759918 -1.798379 0
M  V30 28 C 1.983712 -6.558202 -2.808645 0
M  V30 29 C 1.283861 -6.014355 -3.849235 0
M  V30 30 C 1.061282 -4.660034 -3.829115 0
M  V30 31 N 0.210004 -1.910101 -1.918341 0
M  V30 32 C 0.399037 -1.024233 -0.918470 0
M  V30 33 C -0.767827 -0.750810 -0.192310 0
M  V30 34 C -1.711111 -1.542005 -0.820865 0
M  V30 35 C -3.058556 -1.620642 -0.450201 0
M  V30 36 C -3.813975 -2.500254 -1.241700 0
M  V30 37 C -5.245273 -2.601205 -0.863168 0
M  V30 38 C -6.232503 -3.371593 -1.433144 0
M  V30 39 N -7.347520 -3.104654 -0.728829 0
M  V30 40 C -7.123619 -2.211580 0.251655 0
M  V30 41 C -8.026056 -1.588320 1.286709 0 CFG=2
M  V30 42 C -9.097225 -2.521664 1.717106 0
M  V30 43 C -10.346433 -1.689901 1.719512 0
M  V30 44 C -10.090269 -0.537312 0.752597 0
M  V30 45 N -8.661966 -0.409559 0.750364 0
M  V30 46 C -7.710389 0.550416 0.357694 0
M  V30 47 O -6.458381 0.658810 0.367995 0
M  V30 48 C -7.536546 1.876070 -0.239363 0 CFG=1
M  V30 49 N -6.093866 2.157091 -0.256161 0
M  V30 50 C -5.645970 3.320639 0.417946 0
M  V30 51 O -6.233865 4.224913 1.065524 0
M  V30 52 O -4.374703 3.808169 0.558081 0
M  V30 53 C -4.071932 4.998694 1.266796 0
M  V30 54 C -7.971081 1.928669 -1.688391 0
M  V30 55 C -9.424000 1.583951 -1.892606 0
M  V30 56 C -7.746989 3.330259 -2.224456 0
M  V30 57 N -5.794137 -1.913179 0.141941 0
M  V30 58 C -3.289381 -3.228592 -2.295168 0
M  V30 59 C -1.938304 -3.045267 -2.543135 0
M  V30 60 C -1.092812 -2.217243 -1.843292 0
M  V30 61 C 6.674654 0.909739 -0.618215 0
M  V30 62 N 7.612472 1.671570 0.017110 0
M  V30 63 C 9.732947 -0.358746 4.025961 0
M  V30 64 C 10.020960 -1.543209 4.929693 0
M  V30 65 C 10.768890 0.703804 4.144109 0
M  V30 66 H 4.240897 -3.696265 5.305541 0
M  V30 67 H 5.629011 -3.975694 6.414825 0
M  V30 68 H 4.577529 -2.504947 6.585425 0
M  V30 69 H 7.328371 -1.342223 3.126665 0
M  V30 70 H 8.261629 0.469781 5.394993 0
M  V30 71 H 8.506225 4.488090 4.033848 0
M  V30 72 H 9.940893 3.451291 4.340607 0
M  V30 73 H 10.028507 5.373068 2.392537 0
M  V30 74 H 10.919822 3.790166 2.252673 0
M  V30 75 H 8.766913 4.667073 0.534187 0
M  V30 76 H 9.541444 3.009281 0.622789 0
M  V30 77 H 7.199133 4.102942 2.284312 0
M  V30 78 H 3.337573 1.722532 1.468268 0
M  V30 79 H 1.079917 0.757323 1.025776 0
M  V30 80 H 4.808818 -0.581955 -1.871644 0
M  V30 81 H 1.006132 -2.004506 -3.814328 0
M  V30 82 H 2.567899 -3.818251 -0.991834 0
M  V30 83 H 2.975761 -6.299970 -1.028637 0
M  V30 84 H 2.136518 -7.637261 -2.868268 0
M  V30 85 H 0.864765 -6.534949 -4.721705 0
M  V30 86 H 0.510794 -4.144955 -4.623828 0
M  V30 87 H -0.893803 -0.085750 0.649617 0
M  V30 88 H -3.459905 -1.053900 0.364828 0
M  V30 89 H -6.118720 -4.042815 -2.267907 0
M  V30 90 H -8.301930 -3.501498 -0.866346 0
M  V30 91 H -7.394006 -1.289853 2.148473 0
M  V30 92 H -9.178725 -3.418091 1.067549 0
M  V30 93 H -8.926129 -2.820215 2.789704 0
M  V30 94 H -11.238797 -2.258167 1.377804 0
M  V30 95 H -10.519751 -1.236527 2.717923 0
M  V30 96 H -10.513622 -0.836678 -0.214402 0
M  V30 97 H -10.593256 0.398951 1.132405 0
M  V30 98 H -8.018782 2.661390 0.343167 0
M  V30 99 H -5.256198 1.703153 -0.658640 0
M  V30 100 H -2.985287 5.219064 1.215205 0
M  V30 101 H -4.558525 5.890812 0.793835 0
M  V30 102 H -4.378016 4.957000 2.323697 0
M  V30 103 H -7.306628 1.268780 -2.282959 0
M  V30 104 H -10.021744 2.059294 -1.075504 0
M  V30 105 H -9.731771 2.018798 -2.884221 0
M  V30 106 H -9.511052 0.500088 -1.910394 0
M  V30 107 H -8.066150 3.395822 -3.291297 0
M  V30 108 H -8.389829 4.059555 -1.682344 0
M  V30 109 H -6.676243 3.638863 -2.159521 0
M  V30 110 H -3.910816 -3.889296 -2.871874 0
M  V30 111 H -1.545467 -3.611156 -3.365431 0
M  V30 112 H 6.665518 0.224109 -1.452686 0
M  V30 113 H 8.569710 1.576070 -0.400340 0
M  V30 114 H 9.728920 -0.698821 2.969816 0
M  V30 115 H 9.949874 -2.462535 4.340998 0
M  V30 116 H 9.279815 -1.534571 5.744404 0
M  V30 117 H 11.062622 -1.412761 5.297758 0
M  V30 118 H 10.832394 1.369452 3.270626 0
M  V30 119 H 10.638837 1.300781 5.071179 0
M  V30 120 H 11.750078 0.165208 4.312559 0
M  V30 END ATOM
M  V30 BEGIN BOND
M  V30 1 1 1 2
M  V30 2 1 2 3
M  V30 3 2 3 4
M  V30 4 1 3 5
M  V30 5 1 5 6
M  V30 6 1 6 7
M  V30 7 2 7 8
M  V30 8 1 7 9
M  V30 9 1 9 10
M  V30 10 1 10 11
M  V30 11 1 11 12
M  V30 12 1 12 13
M  V30 13 1 13 14
M  V30 14 2 14 15
M  V30 15 1 15 16
M  V30 16 1 16 17
M  V30 17 2 17 18
M  V30 18 1 18 19
M  V30 19 2 19 20
M  V30 20 1 20 21
M  V30 21 2 21 22
M  V30 22 1 21 23
M  V30 23 1 23 24
M  V30 24 1 24 25
M  V30 25 2 25 26
M  V30 26 1 26 27
M  V30 27 2 27 28
M  V30 28 1 28 29
M  V30 29 2 29 30
M  V30 30 1 24 31
M  V30 31 1 31 32
M  V30 32 2 32 33
M  V30 33 1 33 34
M  V30 34 2 34 35
M  V30 35 1 35 36
M  V30 36 1 36 37
M  V30 37 2 37 38
M  V30 38 1 38 39
M  V30 39 1 39 40
M  V30 40 1 40 41
M  V30 41 1 41 42
M  V30 42 1 42 43
M  V30 43 1 43 44
M  V30 44 1 44 45
M  V30 45 1 45 46
M  V30 46 2 46 47
M  V30 47 1 46 48
M  V30 48 1 48 49
M  V30 49 1 49 50
M  V30 50 2 50 51
M  V30 51 1 50 52
M  V30 52 1 52 53
M  V30 53 1 48 54
M  V30 54 1 54 55
M  V30 55 1 54 56
M  V30 56 2 40 57
M  V30 57 2 36 58
M  V30 58 1 58 59
M  V30 59 2 59 60
M  V30 60 2 16 61
M  V30 61 1 61 62
M  V30 62 1 6 63
M  V30 63 1 63 64
M  V30 64 1 63 65
M  V30 65 1 13 9
M  V30 66 1 62 14
M  V30 67 1 22 17
M  V30 68 1 30 25
M  V30 69 1 60 31
M  V30 70 1 32 20
M  V30 71 1 60 34
M  V30 72 1 57 37
M  V30 73 1 45 41
M  V30 74 1 1 66
M  V30 75 1 1 67
M  V30 76 1 1 68
M  V30 77 1 5 69
M  V30 78 1 6 70 CFG=1
M  V30 79 1 10 71
M  V30 80 1 10 72
M  V30 81 1 11 73
M  V30 82 1 11 74
M  V30 83 1 12 75
M  V30 84 1 12 76
M  V30 85 1 13 77 CFG=1
M  V30 86 1 18 78
M  V30 87 1 19 79
M  V30 88 1 22 80
M  V30 89 1 24 81 CFG=3
M  V30 90 1 26 82
M  V30 91 1 27 83
M  V30 92 1 28 84
M  V30 93 1 29 85
M  V30 94 1 30 86
M  V30 95 1 33 87
M  V30 96 1 35 88
M  V30 97 1 38 89
M  V30 98 1 39 90
M  V30 99 1 41 91 CFG=1
M  V30 100 1 42 92
M  V30 101 1 42 93
M  V30 102 1 43 94
M  V30 103 1 43 95
M  V30 104 1 44 96
M  V30 105 1 44 97
M  V30 106 1 48 98 CFG=1
M  V30 107 1 49 99
M  V30 108 1 53 100
M  V30 109 1 53 101
M  V30 110 1 53 102
M  V30 111 1 54 103
M  V30 112 1 55 104
M  V30 113 1 55 105
M  V30 114 1 55 106
M  V30 115 1 56 107
M  V30 116 1 56 108
M  V30 117 1 56 109
M  V30 118 1 58 110
M  V30 119 1 59 111
M  V30 120 1 61 112
M  V30 121 1 62 113
M  V30 122 1 63 114
M  V30 123 1 64 115
M  V30 124 1 64 116
M  V30 125 1 64 117
M  V30 126 1 65 118
M  V30 127 1 65 119
M  V30 128 1 65 120
M  V30 END BOND
M  V30 END CTAB
M  END
>  <Dataset>  (326) 
OralDrugs

>  <Ligand_Instance>  (326) 
nan

>  <PDB_ID>  (326) 
nan

>  <Standardized_SMILES>  (326) 
COC(=O)N[C@H](C(=O)N1CCC[C@H]1c1nc(-c2ccc3c(c2)O[C@@H](c2ccccc2)n2c-3cc3cc(-c4c[nH]c([C@@H]5CCCN5C(=O)[C@@H](NC(=O)OC)C(C)C)n4)ccc32)c[nH]1)C(C)C

>  <Name>  (326) 
Elbasvir

>  <Pocket>  (326) 
nan

>  <ATP_Site>  (326) 
nan

>  <Peripheral>  (326) 
nan

>  <Num_H_Atoms_ProtBoundConf>  (326) 
nan

>  <Num_Resolved_Atoms>  (326) 
nan

>  <Num_Not_Resolved_Atoms>  (326) 
nan

$$$$
CHEMBL1510
     RDKit          3D

  0  0  0  0  0  0  0  0  0  0999 V3000
M  V30 BEGIN CTAB
M  V30 COUNTS 53 56 0 0 0
M  V30 BEGIN ATOM
M  V30 1 C 0.633951 -0.515438 4.523693 0
M  V30 2 N 1.596012 -0.196578 3.472834 0
M  V30 3 C 2.465016 0.884815 3.931005 0
M  V30 4 C 3.657147 0.759627 3.020949 0
M  V30 5 C 3.808832 -0.725913 2.854292 0
M  V30 6 C 2.451654 -1.301902 3.192903 0 CFG=2
M  V30 7 C 1.993053 -2.203263 2.075008 0
M  V30 8 C 1.856571 -1.533815 0.781662 0
M  V30 9 C 2.790843 -1.612193 -0.237396 0
M  V30 10 N 2.421162 -0.885251 -1.320192 0
M  V30 11 C 1.237326 -0.335653 -0.991072 0
M  V30 12 C 0.421323 0.493831 -1.733244 0
M  V30 13 C -0.744534 0.895719 -1.119092 0
M  V30 14 C -1.193409 0.570980 0.141718 0
M  V30 15 C -2.413241 0.977078 0.811845 0
M  V30 16 C -3.604351 0.119614 0.777536 0
M  V30 17 S -4.359478 -0.282695 -0.729751 0
M  V30 18 O -5.609552 -1.102024 -0.389370 0
M  V30 19 O -4.928821 0.991551 -1.330043 0
M  V30 20 C -3.447745 -1.147884 -1.894565 0
M  V30 21 C -2.794021 -0.769678 -3.055510 0
M  V30 22 C -2.108060 -1.658533 -3.849908 0
M  V30 23 C -2.032568 -2.996869 -3.528439 0
M  V30 24 C -2.661970 -3.414253 -2.393023 0
M  V30 25 C -3.348585 -2.517142 -1.600272 0
M  V30 26 C -0.311469 -0.269530 0.824024 0
M  V30 27 C 0.868956 -0.713349 0.282539 0
M  V30 28 H 1.119745 -0.731255 5.496496 0
M  V30 29 H -0.016115 0.370638 4.674133 0
M  V30 30 H 0.005756 -1.346290 4.169401 0
M  V30 31 H 2.805550 0.730999 4.968372 0
M  V30 32 H 1.956410 1.869320 3.807036 0
M  V30 33 H 3.375920 1.280592 2.068144 0
M  V30 34 H 4.591524 1.194929 3.459364 0
M  V30 35 H 4.072703 -0.998776 1.794306 0
M  V30 36 H 4.609114 -1.077449 3.530757 0
M  V30 37 H 2.501901 -1.952771 4.101424 0
M  V30 38 H 1.035902 -2.704746 2.347820 0
M  V30 39 H 2.755900 -3.022231 2.012039 0
M  V30 40 H 3.739610 -2.156998 -0.280121 0
M  V30 41 H 2.913360 -0.755677 -2.221726 0
M  V30 42 H 0.634031 0.841883 -2.745275 0
M  V30 43 H -1.418463 1.559365 -1.685395 0
M  V30 44 H -2.727394 2.034558 0.517797 0
M  V30 45 H -2.110541 1.150190 1.897806 0
M  V30 46 H -3.489354 -0.801133 1.455621 0
M  V30 47 H -4.408900 0.679784 1.368692 0
M  V30 48 H -2.916267 0.297153 -3.213246 0
M  V30 49 H -1.638283 -1.259327 -4.726330 0
M  V30 50 H -1.489863 -3.662989 -4.168749 0
M  V30 51 H -2.578884 -4.468834 -2.177997 0
M  V30 52 H -3.798032 -3.011528 -0.724912 0
M  V30 53 H -0.583306 -0.584641 1.824013 0
M  V30 END ATOM
M  V30 BEGIN BOND
M  V30 1 1 1 2
M  V30 2 1 2 3
M  V30 3 1 3 4
M  V30 4 1 4 5
M  V30 5 1 5 6
M  V30 6 1 6 7
M  V30 7 1 7 8
M  V30 8 2 8 9
M  V30 9 1 9 10
M  V30 10 1 10 11
M  V30 11 2 11 12
M  V30 12 1 12 13
M  V30 13 2 13 14
M  V30 14 1 14 15
M  V30 15 1 15 16
M  V30 16 1 16 17
M  V30 17 2 17 18
M  V30 18 2 17 19
M  V30 19 1 17 20
M  V30 20 2 20 21
M  V30 21 1 21 22
M  V30 22 2 22 23
M  V30 23 1 23 24
M  V30 24 2 24 25
M  V30 25 1 14 26
M  V30 26 2 26 27
M  V30 27 1 6 2
M  V30 28 1 27 8
M  V30 29 1 27 11
M  V30 30 1 25 20
M  V30 31 1 1 28
M  V30 32 1 1 29
M  V30 33 1 1 30
M  V30 34 1 3 31
M  V30 35 1 3 32
M  V30 36 1 4 33
M  V30 37 1 4 34
M  V30 38 1 5 35
M  V30 39 1 5 36
M  V30 40 1 6 37 CFG=1
M  V30 41 1 7 38
M  V30 42 1 7 39
M  V30 43 1 9 40
M  V30 44 1 10 41
M  V30 45 1 12 42
M  V30 46 1 13 43
M  V30 47 1 15 44
M  V30 48 1 15 45
M  V30 49 1 16 46
M  V30 50 1 16 47
M  V30 51 1 21 48
M  V30 52 1 22 49
M  V30 53 1 23 50
M  V30 54 1 24 51
M  V30 55 1 25 52
M  V30 56 1 26 53
M  V30 END BOND
M  V30 END CTAB
M  END
>  <Dataset>  (327) 
OralDrugs

>  <Ligand_Instance>  (327) 
nan

>  <PDB_ID>  (327) 
nan

>  <Standardized_SMILES>  (327) 
CN1CCC[C@@H]1Cc1c[nH]c2ccc(CCS(=O)(=O)c3ccccc3)cc12

>  <Name>  (327) 
Eletriptan

>  <Pocket>  (327) 
nan

>  <ATP_Site>  (327) 
nan

>  <Peripheral>  (327) 
nan

>  <Num_H_Atoms_ProtBoundConf>  (327) 
nan

>  <Num_Resolved_Atoms>  (327) 
nan

>  <Num_Not_Resolved_Atoms>  (327) 
nan

$$$$
CHEMBL4298128
     RDKit          3D

  0  0  0  0  0  0  0  0  0  0999 V3000
M  V30 BEGIN CTAB
M  V30 COUNTS 75 78 0 0 0
M  V30 BEGIN ATOM
M  V30 1 C 6.852391 -2.200502 0.416109 0
M  V30 2 C 5.457683 -2.445177 0.819359 0
M  V30 3 N 4.993558 -3.349293 1.692098 0
M  V30 4 N 3.695786 -3.276684 1.805581 0
M  V30 5 C 2.703937 -4.020188 2.595662 0
M  V30 6 C 3.300005 -2.288978 0.976761 0
M  V30 7 C 4.398031 -1.719178 0.316982 0
M  V30 8 S 4.370862 -0.417603 -0.886645 0
M  V30 9 O 5.245414 0.730822 -0.449034 0
M  V30 10 O 4.749783 -0.948669 -2.238238 0
M  V30 11 N 2.707702 0.115981 -0.985222 0
M  V30 12 C 2.064095 1.424183 -0.999211 0
M  V30 13 O 2.925615 2.340733 -0.951354 0
M  V30 14 C 0.615740 1.116524 -1.064569 0
M  V30 15 C 0.044312 0.566739 -2.178341 0
M  V30 16 C -1.288821 0.261332 -2.001754 0
M  V30 17 C -1.966554 0.497888 -0.802651 0
M  V30 18 N -3.353760 0.137163 -0.631169 0
M  V30 19 C -4.380426 0.556499 0.083417 0
M  V30 20 C -5.444390 -0.284205 -0.234582 0
M  V30 21 C -5.039728 -1.211015 -1.150536 0
M  V30 22 O -5.754156 -2.210636 -1.728366 0
M  V30 23 C -5.379678 -3.160504 -2.635590 0
M  V30 24 C -4.430081 -4.237165 -2.356045 0
M  V30 25 C -4.276194 -5.034602 -3.680287 0
M  V30 26 C -5.076277 -5.244635 -1.357818 0
M  V30 27 C -3.068722 -3.978566 -1.838711 0
M  V30 28 F -2.457287 -5.273373 -1.747518 0
M  V30 29 F -3.040848 -3.587143 -0.503492 0
M  V30 30 F -2.256752 -3.231562 -2.645157 0
M  V30 31 N -3.757363 -0.888427 -1.340562 0
M  V30 32 N -1.334967 1.047272 0.248540 0
M  V30 33 C -0.020596 1.365905 0.123521 0
M  V30 34 N 0.561021 1.999218 1.282534 0
M  V30 35 C 0.639971 3.440506 1.316329 0
M  V30 36 C 0.792328 3.851625 2.748222 0 CFG=1
M  V30 37 C -0.163959 4.961272 3.128951 0
M  V30 38 C 0.559458 2.576115 3.514208 0
M  V30 39 C 1.174446 1.577358 2.551389 0
M  V30 40 C 0.904080 0.153643 2.878421 0
M  V30 41 C 2.663716 1.859031 2.533626 0
M  V30 42 H 7.090762 -2.882908 -0.447834 0
M  V30 43 H 6.969210 -1.157636 0.100513 0
M  V30 44 H 7.558155 -2.447671 1.265945 0
M  V30 45 H 2.594313 -3.505156 3.551848 0
M  V30 46 H 3.018770 -5.057392 2.778539 0
M  V30 47 H 1.731469 -4.061363 2.060134 0
M  V30 48 H 2.287477 -1.933639 0.800752 0
M  V30 49 H 2.175903 -0.811339 -1.065959 0
M  V30 50 H 0.586800 0.392432 -3.081652 0
M  V30 51 H -1.842036 -0.178670 -2.829567 0
M  V30 52 H -4.257377 1.405222 0.740845 0
M  V30 53 H -6.420865 -0.160023 0.222585 0
M  V30 54 H -6.292530 -3.665654 -3.113617 0
M  V30 55 H -4.957782 -2.627551 -3.579982 0
M  V30 56 H -5.120248 -4.855147 -4.362405 0
M  V30 57 H -4.076533 -6.085023 -3.441905 0
M  V30 58 H -3.356528 -4.595272 -4.153873 0
M  V30 59 H -4.272510 -5.989701 -1.155003 0
M  V30 60 H -5.963530 -5.633950 -1.852160 0
M  V30 61 H -5.278557 -4.659423 -0.448391 0
M  V30 62 H -0.391373 3.819224 1.014948 0
M  V30 63 H 1.414454 3.876884 0.658856 0
M  V30 64 H 1.833147 4.190448 2.969719 0
M  V30 65 H -1.065105 4.983343 2.498694 0
M  V30 66 H 0.359023 5.924162 2.942256 0
M  V30 67 H -0.401645 4.940978 4.219584 0
M  V30 68 H 1.100869 2.593377 4.478962 0
M  V30 69 H -0.524345 2.392387 3.648586 0
M  V30 70 H 0.260105 -0.328137 2.088406 0
M  V30 71 H 0.462100 0.031244 3.884193 0
M  V30 72 H 1.860764 -0.403093 2.821036 0
M  V30 73 H 3.246756 0.989049 2.179489 0
M  V30 74 H 2.885561 2.765474 1.914365 0
M  V30 75 H 3.012070 2.081707 3.568077 0
M  V30 END ATOM
M  V30 BEGIN BOND
M  V30 1 1 1 2
M  V30 2 2 2 3
M  V30 3 1 3 4
M  V30 4 1 4 5
M  V30 5 1 4 6
M  V30 6 2 6 7
M  V30 7 1 7 8
M  V30 8 2 8 9
M  V30 9 2 8 10
M  V30 10 1 8 11
M  V30 11 1 11 12
M  V30 12 2 12 13
M  V30 13 1 12 14
M  V30 14 2 14 15
M  V30 15 1 15 16
M  V30 16 2 16 17
M  V30 17 1 17 18
M  V30 18 1 18 19
M  V30 19 2 19 20
M  V30 20 1 20 21
M  V30 21 1 21 22
M  V30 22 1 22 23
M  V30 23 1 23 24
M  V30 24 1 24 25
M  V30 25 1 24 26
M  V30 26 1 24 27
M  V30 27 1 27 28
M  V30 28 1 27 29
M  V30 29 1 27 30
M  V30 30 2 21 31
M  V30 31 1 17 32
M  V30 32 2 32 33
M  V30 33 1 33 34
M  V30 34 1 34 35
M  V30 35 1 35 36
M  V30 36 1 36 37
M  V30 37 1 36 38
M  V30 38 1 38 39
M  V30 39 1 39 40
M  V30 40 1 39 41
M  V30 41 1 7 2
M  V30 42 1 33 14
M  V30 43 1 39 34
M  V30 44 1 31 18
M  V30 45 1 1 42
M  V30 46 1 1 43
M  V30 47 1 1 44
M  V30 48 1 5 45
M  V30 49 1 5 46
M  V30 50 1 5 47
M  V30 51 1 6 48
M  V30 52 1 11 49
M  V30 53 1 15 50
M  V30 54 1 16 51
M  V30 55 1 19 52
M  V30 56 1 20 53
M  V30 57 1 23 54
M  V30 58 1 23 55
M  V30 59 1 25 56
M  V30 60 1 25 57
M  V30 61 1 25 58
M  V30 62 1 26 59
M  V30 63 1 26 60
M  V30 64 1 26 61
M  V30 65 1 35 62
M  V30 66 1 35 63
M  V30 67 1 36 64 CFG=3
M  V30 68 1 37 65
M  V30 69 1 37 66
M  V30 70 1 37 67
M  V30 71 1 38 68
M  V30 72 1 38 69
M  V30 73 1 40 70
M  V30 74 1 40 71
M  V30 75 1 40 72
M  V30 76 1 41 73
M  V30 77 1 41 74
M  V30 78 1 41 75
M  V30 END BOND
M  V30 END CTAB
M  END
>  <Dataset>  (328) 
OralDrugs

>  <Ligand_Instance>  (328) 
nan

>  <PDB_ID>  (328) 
nan

>  <Standardized_SMILES>  (328) 
Cc1nn(C)cc1S(=O)(=O)NC(=O)c1ccc(-n2ccc(OCC(C)(C)C(F)(F)F)n2)nc1N1C[C@@H](C)CC1(C)C

>  <Name>  (328) 
Elexacaftor

>  <Pocket>  (328) 
nan

>  <ATP_Site>  (328) 
nan

>  <Peripheral>  (328) 
nan

>  <Num_H_Atoms_ProtBoundConf>  (328) 
nan

>  <Num_Resolved_Atoms>  (328) 
nan

>  <Num_Not_Resolved_Atoms>  (328) 
nan

$$$$
CHEMBL2110588
     RDKit          3D

  0  0  0  0  0  0  0  0  0  0999 V3000
M  V30 BEGIN CTAB
M  V30 COUNTS 65 67 0 0 0
M  V30 BEGIN ATOM
M  V30 1 C 3.618065 -4.205867 3.637158 0
M  V30 2 C 4.103195 -4.051406 2.189600 0
M  V30 3 C 5.433815 -3.317646 2.162715 0
M  V30 4 C 5.315607 -1.939749 2.767658 0
M  V30 5 C 4.351813 -1.040993 2.074543 0
M  V30 6 C 4.682472 -0.771572 0.625493 0
M  V30 7 C 3.689088 0.136103 -0.022376 0
M  V30 8 C 2.311446 -0.360933 -0.056132 0
M  V30 9 O 2.075464 -1.517018 0.323652 0
M  V30 10 N 1.241382 0.446944 -0.510613 0
M  V30 11 C -0.160458 -0.105064 -0.532472 0 CFG=2
M  V30 12 C -0.691539 -0.022553 -1.908713 0
M  V30 13 N -0.829276 1.213760 -2.554139 0
M  V30 14 C -1.780468 2.160786 -2.172685 0
M  V30 15 C -3.050589 1.922957 -2.970280 0
M  V30 16 C -2.615772 1.086058 -4.122604 0
M  V30 17 C -1.125068 1.005480 -3.954594 0
M  V30 18 C -0.836385 0.530347 0.594844 0 CFG=2
M  V30 19 O -0.046976 0.172520 1.749828 0
M  V30 20 C -2.183866 0.186805 0.978876 0
M  V30 21 C -2.447282 0.796896 2.224201 0
M  V30 22 C -3.683132 0.651127 2.881025 0
M  V30 23 C -4.666021 -0.096876 2.314349 0
M  V30 24 C -4.443672 -0.704485 1.103328 0
M  V30 25 C -3.229895 -0.547915 0.481547 0
M  V30 26 O -5.400713 -1.472497 0.482391 0
M  V30 27 C -6.785644 -1.348284 0.769907 0
M  V30 28 C -7.076495 -0.591011 2.030134 0
M  V30 29 O -5.934963 -0.340878 2.827193 0
M  V30 30 H 4.544476 -4.288971 4.234052 0
M  V30 31 H 3.028328 -5.134052 3.775256 0
M  V30 32 H 2.976329 -3.358843 3.928985 0
M  V30 33 H 4.305909 -5.094292 1.836138 0
M  V30 34 H 3.341826 -3.620225 1.544021 0
M  V30 35 H 5.813676 -3.345486 1.144384 0
M  V30 36 H 6.109195 -3.925141 2.808743 0
M  V30 37 H 6.344160 -1.505158 2.862036 0
M  V30 38 H 4.945837 -2.089405 3.800599 0
M  V30 39 H 4.433816 -0.042334 2.588958 0
M  V30 40 H 3.344763 -1.400585 2.266175 0
M  V30 41 H 4.792057 -1.708696 0.040131 0
M  V30 42 H 5.663423 -0.237832 0.609779 0
M  V30 43 H 3.699125 1.145933 0.461169 0
M  V30 44 H 4.020762 0.316286 -1.085117 0
M  V30 45 H 1.502759 1.413234 -0.813846 0
M  V30 46 H -0.002916 -1.168398 -0.282274 0
M  V30 47 H -1.570563 -0.643355 -2.152024 0
M  V30 48 H 0.123075 -0.570999 -2.527613 0
M  V30 49 H -1.398411 3.175334 -2.510747 0
M  V30 50 H -2.078002 2.293886 -1.150553 0
M  V30 51 H -3.508509 2.895959 -3.240077 0
M  V30 52 H -3.742179 1.320628 -2.311501 0
M  V30 53 H -3.103273 0.089726 -4.085843 0
M  V30 54 H -2.876323 1.604837 -5.073485 0
M  V30 55 H -0.826593 -0.001155 -4.330275 0
M  V30 56 H -0.645389 1.780880 -4.590826 0
M  V30 57 H -0.639496 1.647055 0.573989 0
M  V30 58 H -0.456557 -0.557941 2.245387 0
M  V30 59 H -1.796459 1.435710 2.846395 0
M  V30 60 H -3.949473 1.088737 3.831329 0
M  V30 61 H -3.006736 -0.996817 -0.441965 0
M  V30 62 H -7.346682 -0.848278 -0.060268 0
M  V30 63 H -7.178084 -2.381078 0.898649 0
M  V30 64 H -7.584327 0.386041 1.860111 0
M  V30 65 H -7.794743 -1.158044 2.691089 0
M  V30 END ATOM
M  V30 BEGIN BOND
M  V30 1 1 1 2
M  V30 2 1 2 3
M  V30 3 1 3 4
M  V30 4 1 4 5
M  V30 5 1 5 6
M  V30 6 1 6 7
M  V30 7 1 7 8
M  V30 8 2 8 9
M  V30 9 1 8 10
M  V30 10 1 10 11
M  V30 11 1 11 12
M  V30 12 1 12 13
M  V30 13 1 13 14
M  V30 14 1 14 15
M  V30 15 1 15 16
M  V30 16 1 16 17
M  V30 17 1 11 18
M  V30 18 1 18 19
M  V30 19 1 18 20
M  V30 20 2 20 21
M  V30 21 1 21 22
M  V30 22 2 22 23
M  V30 23 1 23 24
M  V30 24 2 24 25
M  V30 25 1 24 26
M  V30 26 1 26 27
M  V30 27 1 27 28
M  V30 28 1 28 29
M  V30 29 1 17 13
M  V30 30 1 25 20
M  V30 31 1 29 23
M  V30 32 1 1 30
M  V30 33 1 1 31
M  V30 34 1 1 32
M  V30 35 1 2 33
M  V30 36 1 2 34
M  V30 37 1 3 35
M  V30 38 1 3 36
M  V30 39 1 4 37
M  V30 40 1 4 38
M  V30 41 1 5 39
M  V30 42 1 5 40
M  V30 43 1 6 41
M  V30 44 1 6 42
M  V30 45 1 7 43
M  V30 46 1 7 44
M  V30 47 1 10 45
M  V30 48 1 11 46 CFG=1
M  V30 49 1 12 47
M  V30 50 1 12 48
M  V30 51 1 14 49
M  V30 52 1 14 50
M  V30 53 1 15 51
M  V30 54 1 15 52
M  V30 55 1 16 53
M  V30 56 1 16 54
M  V30 57 1 17 55
M  V30 58 1 17 56
M  V30 59 1 18 57 CFG=3
M  V30 60 1 19 58
M  V30 61 1 21 59
M  V30 62 1 22 60
M  V30 63 1 25 61
M  V30 64 1 27 62
M  V30 65 1 27 63
M  V30 66 1 28 64
M  V30 67 1 28 65
M  V30 END BOND
M  V30 END CTAB
M  END
>  <Dataset>  (329) 
OralDrugs

>  <Ligand_Instance>  (329) 
nan

>  <PDB_ID>  (329) 
nan

>  <Standardized_SMILES>  (329) 
CCCCCCCC(=O)N[C@H](CN1CCCC1)[C@H](O)c1ccc2c(c1)OCCO2

>  <Name>  (329) 
Eliglustat

>  <Pocket>  (329) 
nan

>  <ATP_Site>  (329) 
nan

>  <Peripheral>  (329) 
nan

>  <Num_H_Atoms_ProtBoundConf>  (329) 
nan

>  <Num_Resolved_Atoms>  (329) 
nan

>  <Num_Not_Resolved_Atoms>  (329) 
nan

$$$$
CHEMBL461101
     RDKit          3D

  0  0  0  0  0  0  0  0  0  0999 V3000
M  V30 BEGIN CTAB
M  V30 COUNTS 55 58 0 0 0
M  V30 BEGIN ATOM
M  V30 1 C -0.953180 -1.268397 5.149953 0
M  V30 2 C -0.392132 -0.468534 4.006281 0
M  V30 3 N 0.840159 -0.195156 3.765395 0
M  V30 4 N 0.970414 0.577501 2.601273 0
M  V30 5 C 2.229977 1.017411 2.109358 0
M  V30 6 C 3.426449 0.719099 2.738546 0
M  V30 7 C 4.655589 1.138342 2.273873 0
M  V30 8 C 4.735338 1.896896 1.124026 0
M  V30 9 C 6.036993 2.366818 0.592199 0
M  V30 10 C 3.571098 2.222145 0.458242 0
M  V30 11 C 3.647753 3.041844 -0.785660 0
M  V30 12 C 2.359049 1.774847 0.968334 0
M  V30 13 C -0.335028 0.795361 2.079550 0
M  V30 14 O -0.625837 1.432470 1.062249 0
M  V30 15 C -1.256954 0.116485 2.985974 0
M  V30 16 N -2.540898 0.079854 2.856954 0
M  V30 17 N -3.176735 0.719082 1.786669 0
M  V30 18 C -3.303717 0.264639 0.431943 0
M  V30 19 C -3.974696 1.040925 -0.498091 0
M  V30 20 C -4.066769 0.554919 -1.787123 0
M  V30 21 C -3.525378 -0.655138 -2.180811 0
M  V30 22 C -2.860508 -1.405948 -1.223160 0
M  V30 23 C -2.286724 -2.687436 -1.638460 0
M  V30 24 C -1.579650 -2.706292 -2.842308 0
M  V30 25 C -0.998578 -3.870735 -3.322031 0
M  V30 26 C -1.123354 -5.049941 -2.585098 0
M  V30 27 C -1.825791 -5.000586 -1.402730 0
M  V30 28 C -1.936839 -6.248934 -0.658666 0
M  V30 29 O -1.387731 -7.292810 -1.137076 0
M  V30 30 O -2.606337 -6.386930 0.550335 0
M  V30 31 C -2.408638 -3.853770 -0.912143 0
M  V30 32 C -2.753493 -0.941276 0.078651 0
M  V30 33 O -2.077144 -1.749535 0.965628 0
M  V30 34 H -0.168738 -1.643731 5.814965 0
M  V30 35 H -1.630165 -0.603374 5.756547 0
M  V30 36 H -1.605243 -2.036203 4.707323 0
M  V30 37 H 3.405502 0.116842 3.657588 0
M  V30 38 H 5.553857 0.871030 2.812613 0
M  V30 39 H 6.203078 3.456498 0.802274 0
M  V30 40 H 6.122380 2.140503 -0.499016 0
M  V30 41 H 6.881759 1.854093 1.095105 0
M  V30 42 H 3.985320 4.081378 -0.561775 0
M  V30 43 H 2.620773 3.120664 -1.201588 0
M  V30 44 H 4.260173 2.561010 -1.568422 0
M  V30 45 H 1.514329 2.067423 0.398625 0
M  V30 46 H -3.587564 1.629687 2.070446 0
M  V30 47 H -4.388523 1.981397 -0.166699 0
M  V30 48 H -4.597040 1.173823 -2.511514 0
M  V30 49 H -3.639166 -0.968819 -3.211410 0
M  V30 50 H -1.483704 -1.780648 -3.417351 0
M  V30 51 H -0.464645 -3.814799 -4.262218 0
M  V30 52 H -0.659271 -5.931084 -2.989903 0
M  V30 53 H -2.774877 -7.313703 0.941056 0
M  V30 54 H -2.956245 -3.806289 0.005608 0
M  V30 55 H -1.123613 -2.073851 0.822918 0
M  V30 END ATOM
M  V30 BEGIN BOND
M  V30 1 1 1 2
M  V30 2 2 2 3
M  V30 3 1 3 4
M  V30 4 1 4 5
M  V30 5 2 5 6
M  V30 6 1 6 7
M  V30 7 2 7 8
M  V30 8 1 8 9
M  V30 9 1 8 10
M  V30 10 1 10 11
M  V30 11 2 10 12
M  V30 12 1 4 13
M  V30 13 2 13 14
M  V30 14 1 13 15
M  V30 15 2 15 16
M  V30 16 1 16 17
M  V30 17 1 17 18
M  V30 18 2 18 19
M  V30 19 1 19 20
M  V30 20 2 20 21
M  V30 21 1 21 22
M  V30 22 1 22 23
M  V30 23 2 23 24
M  V30 24 1 24 25
M  V30 25 2 25 26
M  V30 26 1 26 27
M  V30 27 1 27 28
M  V30 28 2 28 29
M  V30 29 1 28 30
M  V30 30 2 27 31
M  V30 31 2 22 32
M  V30 32 1 32 33
M  V30 33 1 15 2
M  V30 34 1 32 18
M  V30 35 1 12 5
M  V30 36 1 31 23
M  V30 37 1 1 34
M  V30 38 1 1 35
M  V30 39 1 1 36
M  V30 40 1 6 37
M  V30 41 1 7 38
M  V30 42 1 9 39
M  V30 43 1 9 40
M  V30 44 1 9 41
M  V30 45 1 11 42
M  V30 46 1 11 43
M  V30 47 1 11 44
M  V30 48 1 12 45
M  V30 49 1 17 46
M  V30 50 1 19 47
M  V30 51 1 20 48
M  V30 52 1 21 49
M  V30 53 1 24 50
M  V30 54 1 25 51
M  V30 55 1 26 52
M  V30 56 1 30 53
M  V30 57 1 31 54
M  V30 58 1 33 55
M  V30 END BOND
M  V30 END CTAB
M  END
>  <Dataset>  (330) 
OralDrugs

>  <Ligand_Instance>  (330) 
nan

>  <PDB_ID>  (330) 
nan

>  <Standardized_SMILES>  (330) 
CC1=NN(c2ccc(C)c(C)c2)C(=O)/C1=N\Nc1cccc(-c2cccc(C(=O)O)c2)c1O

>  <Name>  (330) 
Eltrombopag

>  <Pocket>  (330) 
nan

>  <ATP_Site>  (330) 
nan

>  <Peripheral>  (330) 
nan

>  <Num_H_Atoms_ProtBoundConf>  (330) 
nan

>  <Num_Resolved_Atoms>  (330) 
nan

>  <Num_Not_Resolved_Atoms>  (330) 
nan

$$$$
CHEMBL2159122
     RDKit          3D

  0  0  0  0  0  0  0  0  0  0999 V3000
M  V30 BEGIN CTAB
M  V30 COUNTS 77 80 0 0 0
M  V30 BEGIN ATOM
M  V30 1 C -1.504465 -5.654171 1.720035 0
M  V30 2 O -0.616840 -4.625805 2.083501 0
M  V30 3 C -0.798611 -3.362667 1.550225 0
M  V30 4 C -1.787154 -2.988792 0.673513 0
M  V30 5 C -1.994390 -1.759227 0.130642 0
M  V30 6 C -1.110236 -0.762811 0.499497 0
M  V30 7 C -1.181672 0.650407 -0.025034 0
M  V30 8 N -0.322114 0.761253 -1.214129 0
M  V30 9 C 1.052083 1.125494 -1.223225 0
M  V30 10 O 1.931761 1.264029 -2.081001 0
M  V30 11 C 2.270156 1.520498 -0.558361 0 CFG=1
M  V30 12 N 3.365053 1.298353 -1.555305 0
M  V30 13 C 2.385042 2.918872 -0.073253 0
M  V30 14 C 1.418339 3.410732 0.881501 0
M  V30 15 C 0.166779 3.961237 0.705081 0
M  V30 16 C -0.278847 4.182224 -0.692162 0
M  V30 17 C -0.706301 4.359942 1.670926 0
M  V30 18 C -0.315585 4.207274 2.988182 0
M  V30 19 C -1.217970 4.627759 4.060695 0
M  V30 20 N -2.462496 5.211158 3.767396 0
M  V30 21 O -0.865722 4.460648 5.245283 0
M  V30 22 C 0.920246 3.666866 3.261947 0
M  V30 23 C 1.785117 3.269849 2.232859 0
M  V30 24 C 3.057723 2.709060 2.776973 0
M  V30 25 C -0.819984 0.482930 -2.558913 0 CFG=1
M  V30 26 C -0.739999 1.666702 -3.473272 0
M  V30 27 C -0.136231 -0.705531 -3.142047 0
M  V30 28 N 1.179242 -1.031857 -3.191627 0
M  V30 29 C 1.364276 -2.209502 -3.805143 0
M  V30 30 C 0.116296 -2.663965 -4.167739 0
M  V30 31 C -0.146898 -3.902841 -4.852405 0
M  V30 32 C 0.847751 -4.788821 -5.236762 0
M  V30 33 C 0.528966 -5.969429 -5.890466 0
M  V30 34 C -0.776743 -6.275266 -6.165548 0
M  V30 35 C -1.827425 -5.438674 -5.812648 0
M  V30 36 C -1.436899 -4.283710 -5.166119 0
M  V30 37 N -0.762595 -1.750674 -3.762209 0
M  V30 38 C -0.081851 -1.061849 1.384407 0
M  V30 39 C 0.058042 -2.337525 1.889509 0
M  V30 40 C 1.159430 -2.587128 2.809485 0
M  V30 41 O 1.324901 -3.749437 3.298824 0
M  V30 42 O 2.057528 -1.604295 3.188619 0
M  V30 43 H -2.436809 -5.507493 2.309126 0
M  V30 44 H -1.786538 -5.664884 0.654333 0
M  V30 45 H -1.065176 -6.642516 1.978799 0
M  V30 46 H -2.496976 -3.778432 0.373271 0
M  V30 47 H -2.793729 -1.526520 -0.554452 0
M  V30 48 H -0.849509 1.288581 0.807960 0
M  V30 49 H -2.217885 0.953298 -0.271286 0
M  V30 50 H 2.555285 0.838168 0.290735 0
M  V30 51 H 4.220339 1.798138 -1.257955 0
M  V30 52 H 3.489910 0.257855 -1.579321 0
M  V30 53 H 3.424908 3.134480 0.336118 0
M  V30 54 H 2.373206 3.580179 -1.002399 0
M  V30 55 H -0.854966 5.157085 -0.698876 0
M  V30 56 H 0.603879 4.414938 -1.358570 0
M  V30 57 H -0.934980 3.402574 -1.100077 0
M  V30 58 H -1.663804 4.780653 1.448108 0
M  V30 59 H -3.401185 4.733637 3.804905 0
M  V30 60 H -3.388175 4.737364 3.805170 0
M  V30 61 H 1.141651 3.584561 4.306651 0
M  V30 62 H 2.790556 2.003024 3.611775 0
M  V30 63 H 3.618876 2.099997 2.046225 0
M  V30 64 H 3.626496 3.560310 3.196322 0
M  V30 65 H -1.889695 0.226945 -2.413250 0
M  V30 66 H -1.531273 2.393511 -3.256001 0
M  V30 67 H -0.984576 1.270070 -4.502324 0
M  V30 68 H 0.271807 2.104704 -3.548042 0
M  V30 69 H 2.352673 -2.626618 -3.933985 0
M  V30 70 H 1.887290 -4.536710 -5.013081 0
M  V30 71 H 1.336750 -6.627244 -6.170832 0
M  V30 72 H -1.040577 -7.204444 -6.680430 0
M  V30 73 H -2.870748 -5.627200 -6.003123 0
M  V30 74 H -2.228127 -3.583785 -4.863413 0
M  V30 75 H -1.810224 -1.808132 -3.892498 0
M  V30 76 H 0.604997 -0.274909 1.667196 0
M  V30 77 H 2.931475 -1.868614 3.611822 0
M  V30 END ATOM
M  V30 BEGIN BOND
M  V30 1 1 1 2
M  V30 2 1 2 3
M  V30 3 2 3 4
M  V30 4 1 4 5
M  V30 5 2 5 6
M  V30 6 1 6 7
M  V30 7 1 7 8
M  V30 8 1 8 9
M  V30 9 2 9 10
M  V30 10 1 9 11
M  V30 11 1 11 12
M  V30 12 1 11 13
M  V30 13 1 13 14
M  V30 14 2 14 15
M  V30 15 1 15 16
M  V30 16 1 15 17
M  V30 17 2 17 18
M  V30 18 1 18 19
M  V30 19 1 19 20
M  V30 20 2 19 21
M  V30 21 1 18 22
M  V30 22 2 22 23
M  V30 23 1 23 24
M  V30 24 1 8 25
M  V30 25 1 25 26
M  V30 26 1 25 27
M  V30 27 2 27 28
M  V30 28 1 28 29
M  V30 29 2 29 30
M  V30 30 1 30 31
M  V30 31 2 31 32
M  V30 32 1 32 33
M  V30 33 2 33 34
M  V30 34 1 34 35
M  V30 35 2 35 36
M  V30 36 1 30 37
M  V30 37 1 6 38
M  V30 38 2 38 39
M  V30 39 1 39 40
M  V30 40 2 40 41
M  V30 41 1 40 42
M  V30 42 1 39 3
M  V30 43 1 23 14
M  V30 44 1 37 27
M  V30 45 1 36 31
M  V30 46 1 1 43
M  V30 47 1 1 44
M  V30 48 1 1 45
M  V30 49 1 4 46
M  V30 50 1 5 47
M  V30 51 1 7 48
M  V30 52 1 7 49
M  V30 53 1 11 50 CFG=1
M  V30 54 1 12 51
M  V30 55 1 12 52
M  V30 56 1 13 53
M  V30 57 1 13 54
M  V30 58 1 16 55
M  V30 59 1 16 56
M  V30 60 1 16 57
M  V30 61 1 17 58
M  V30 62 1 20 59
M  V30 63 1 20 60
M  V30 64 1 22 61
M  V30 65 1 24 62
M  V30 66 1 24 63
M  V30 67 1 24 64
M  V30 68 1 25 65 CFG=1
M  V30 69 1 26 66
M  V30 70 1 26 67
M  V30 71 1 26 68
M  V30 72 1 29 69
M  V30 73 1 32 70
M  V30 74 1 33 71
M  V30 75 1 34 72
M  V30 76 1 35 73
M  V30 77 1 36 74
M  V30 78 1 37 75
M  V30 79 1 38 76
M  V30 80 1 42 77
M  V30 END BOND
M  V30 END CTAB
M  END
>  <Dataset>  (331) 
OralDrugs

>  <Ligand_Instance>  (331) 
nan

>  <PDB_ID>  (331) 
nan

>  <Standardized_SMILES>  (331) 
COc1ccc(CN(C(=O)[C@@H](N)Cc2c(C)cc(C(N)=O)cc2C)[C@@H](C)c2ncc(-c3ccccc3)[nH]2)cc1C(=O)O

>  <Name>  (331) 
Eluxadoline

>  <Pocket>  (331) 
nan

>  <ATP_Site>  (331) 
nan

>  <Peripheral>  (331) 
nan

>  <Num_H_Atoms_ProtBoundConf>  (331) 
nan

>  <Num_Resolved_Atoms>  (331) 
nan

>  <Num_Not_Resolved_Atoms>  (331) 
nan

$$$$
CHEMBL204656
     RDKit          3D

  0  0  0  0  0  0  0  0  0  0999 V3000
M  V30 BEGIN CTAB
M  V30 COUNTS 54 56 0 0 0
M  V30 BEGIN ATOM
M  V30 1 C -1.653531 0.955671 3.728178 0
M  V30 2 O -0.329800 0.843933 3.307994 0
M  V30 3 C 0.172028 0.065907 2.305235 0
M  V30 4 C -0.612753 -0.760313 1.535749 0
M  V30 5 C -0.143589 -1.551910 0.530297 0
M  V30 6 C 1.223491 -1.476809 0.317448 0
M  V30 7 C 2.013209 -0.643981 1.092907 0
M  V30 8 C 1.517692 0.172379 2.129994 0
M  V30 9 C 2.566546 0.989145 2.785344 0
M  V30 10 C 2.607708 2.362083 2.245143 0
M  V30 11 C 3.550586 2.518231 1.208550 0
M  V30 12 C 3.741651 3.698229 0.526116 0
M  V30 13 C 3.026227 4.817070 0.804659 0
M  V30 14 C 2.106008 4.672643 1.814191 0
M  V30 15 Cl 1.101931 6.040181 2.290952 0
M  V30 16 C 1.906441 3.499521 2.502098 0
M  V30 17 F 1.007238 3.423923 3.502989 0
M  V30 18 C 1.857689 -2.230563 -0.671627 0
M  V30 19 O 3.091450 -2.158042 -0.857791 0
M  V30 20 C 1.029428 -3.044577 -1.410186 0
M  V30 21 C 1.679316 -3.835928 -2.442219 0
M  V30 22 O 2.920882 -3.746453 -2.608904 0
M  V30 23 O 1.023802 -4.718725 -3.295843 0
M  V30 24 C -0.311391 -3.059684 -1.135663 0
M  V30 25 N -0.969735 -2.362311 -0.205821 0
M  V30 26 C -2.347790 -2.374457 0.061497 0 CFG=2
M  V30 27 C -2.727329 -3.494636 1.056315 0
M  V30 28 O -2.071170 -3.344468 2.272758 0
M  V30 29 C -3.324105 -2.548102 -1.064776 0
M  V30 30 C -3.269557 -3.806953 -1.842471 0
M  V30 31 C -3.368786 -1.310463 -1.958639 0
M  V30 32 H -2.401501 0.798337 2.934989 0
M  V30 33 H -1.823721 0.218200 4.565462 0
M  V30 34 H -1.824401 1.977653 4.129597 0
M  V30 35 H -1.632737 -0.714780 1.817921 0
M  V30 36 H 3.080551 -0.636442 0.863949 0
M  V30 37 H 2.324684 1.105024 3.885537 0
M  V30 38 H 3.543293 0.514224 2.658235 0
M  V30 39 H 4.197689 1.701848 0.874979 0
M  V30 40 H 4.489216 3.773858 -0.278512 0
M  V30 41 H 3.088227 5.772075 0.348878 0
M  V30 42 H 1.280391 -4.774756 -4.287258 0
M  V30 43 H -0.813378 -3.727982 -1.778588 0
M  V30 44 H -2.666034 -1.405226 0.498278 0
M  V30 45 H -2.417583 -4.480648 0.655594 0
M  V30 46 H -3.830691 -3.539995 1.169713 0
M  V30 47 H -1.138950 -3.645089 2.146975 0
M  V30 48 H -4.323359 -2.528588 -0.546085 0
M  V30 49 H -4.329972 -4.173004 -2.105287 0
M  V30 50 H -2.868854 -4.693450 -1.315343 0
M  V30 51 H -2.852802 -3.676868 -2.882453 0
M  V30 52 H -3.787875 -1.617716 -2.918238 0
M  V30 53 H -4.037189 -0.538176 -1.528568 0
M  V30 54 H -2.377832 -0.822494 -2.025550 0
M  V30 END ATOM
M  V30 BEGIN BOND
M  V30 1 1 1 2
M  V30 2 1 2 3
M  V30 3 2 3 4
M  V30 4 1 4 5
M  V30 5 2 5 6
M  V30 6 1 6 7
M  V30 7 2 7 8
M  V30 8 1 8 9
M  V30 9 1 9 10
M  V30 10 2 10 11
M  V30 11 1 11 12
M  V30 12 2 12 13
M  V30 13 1 13 14
M  V30 14 1 14 15
M  V30 15 2 14 16
M  V30 16 1 16 17
M  V30 17 1 6 18
M  V30 18 2 18 19
M  V30 19 1 18 20
M  V30 20 1 20 21
M  V30 21 2 21 22
M  V30 22 1 21 23
M  V30 23 2 20 24
M  V30 24 1 24 25
M  V30 25 1 25 26
M  V30 26 1 26 27
M  V30 27 1 27 28
M  V30 28 1 26 29
M  V30 29 1 29 30
M  V30 30 1 29 31
M  V30 31 1 8 3
M  V30 32 1 16 10
M  V30 33 1 25 5
M  V30 34 1 1 32
M  V30 35 1 1 33
M  V30 36 1 1 34
M  V30 37 1 4 35
M  V30 38 1 7 36
M  V30 39 1 9 37
M  V30 40 1 9 38
M  V30 41 1 11 39
M  V30 42 1 12 40
M  V30 43 1 13 41
M  V30 44 1 23 42
M  V30 45 1 24 43
M  V30 46 1 26 44 CFG=1
M  V30 47 1 27 45
M  V30 48 1 27 46
M  V30 49 1 28 47
M  V30 50 1 29 48
M  V30 51 1 30 49
M  V30 52 1 30 50
M  V30 53 1 30 51
M  V30 54 1 31 52
M  V30 55 1 31 53
M  V30 56 1 31 54
M  V30 END BOND
M  V30 END CTAB
M  END
>  <Dataset>  (332) 
OralDrugs

>  <Ligand_Instance>  (332) 
nan

>  <PDB_ID>  (332) 
nan

>  <Standardized_SMILES>  (332) 
COc1cc2c(cc1Cc1cccc(Cl)c1F)c(=O)c(C(=O)O)cn2[C@H](CO)C(C)C

>  <Name>  (332) 
Elvitegravir

>  <Pocket>  (332) 
nan

>  <ATP_Site>  (332) 
nan

>  <Peripheral>  (332) 
nan

>  <Num_H_Atoms_ProtBoundConf>  (332) 
nan

>  <Num_Resolved_Atoms>  (332) 
nan

>  <Num_Not_Resolved_Atoms>  (332) 
nan

$$$$
CHEMBL2107830
     RDKit          3D

  0  0  0  0  0  0  0  0  0  0999 V3000
M  V30 BEGIN CTAB
M  V30 COUNTS 58 61 0 0 0
M  V30 BEGIN ATOM
M  V30 1 O -2.629212 -3.807304 3.586930 0
M  V30 2 C -2.355004 -4.601096 2.483304 0
M  V30 3 C -1.293719 -3.944426 1.623523 0 CFG=1
M  V30 4 O -0.088880 -3.750767 2.328236 0
M  V30 5 C 0.691120 -2.995575 1.439269 0 CFG=1
M  V30 6 C 1.695384 -2.152511 2.131800 0
M  V30 7 C 2.483390 -2.633496 3.165510 0
M  V30 8 C 3.413869 -1.806871 3.787641 0
M  V30 9 C 3.585984 -0.490175 3.403287 0
M  V30 10 Cl 4.758882 0.553416 4.186813 0
M  V30 11 C 2.810630 0.019453 2.370571 0
M  V30 12 C 2.974208 1.430861 1.936641 0
M  V30 13 C 2.003737 1.667213 0.816429 0
M  V30 14 C 0.747805 2.116767 1.201514 0
M  V30 15 C -0.280915 2.391678 0.325017 0
M  V30 16 C -0.042394 2.207619 -1.008606 0
M  V30 17 O -0.963304 2.438136 -1.992326 0
M  V30 18 C -2.274494 2.887687 -1.843063 0 CFG=1
M  V30 19 C -2.354386 4.236914 -2.568372 0
M  V30 20 C -3.763331 4.201285 -3.073834 0
M  V30 21 O -3.905159 2.889102 -3.519564 0
M  V30 22 C -3.289818 2.063045 -2.605289 0
M  V30 23 C 1.199317 1.761132 -1.415148 0
M  V30 24 C 2.216681 1.490306 -0.534915 0
M  V30 25 C 1.900501 -0.832608 1.780717 0
M  V30 26 C 1.330740 -3.987778 0.502403 0 CFG=2
M  V30 27 O 1.920047 -3.280003 -0.543264 0
M  V30 28 C 0.342287 -4.994138 0.033573 0 CFG=1
M  V30 29 O 0.652775 -6.239282 0.596768 0
M  V30 30 C -1.088627 -4.644835 0.329498 0 CFG=2
M  V30 31 O -1.653809 -3.876604 -0.709980 0
M  V30 32 H -3.570819 -3.492370 3.577382 0
M  V30 33 H -3.258642 -4.656686 1.858707 0
M  V30 34 H -2.091530 -5.633801 2.778756 0
M  V30 35 H -1.680239 -2.897379 1.450060 0
M  V30 36 H 0.061137 -2.321394 0.819639 0
M  V30 37 H 2.340857 -3.682766 3.466149 0
M  V30 38 H 4.026762 -2.186967 4.594212 0
M  V30 39 H 3.986126 1.583779 1.471573 0
M  V30 40 H 2.776792 2.132483 2.746739 0
M  V30 41 H 0.507866 2.279919 2.261981 0
M  V30 42 H -1.246259 2.740503 0.662978 0
M  V30 43 H -2.604739 3.077961 -0.821151 0
M  V30 44 H -1.624073 4.251865 -3.426274 0
M  V30 45 H -2.161311 5.082555 -1.899787 0
M  V30 46 H -3.812923 4.912461 -3.930721 0
M  V30 47 H -4.445677 4.466359 -2.249708 0
M  V30 48 H -4.000784 1.640751 -1.855213 0
M  V30 49 H -2.776379 1.228208 -3.128495 0
M  V30 50 H 1.418537 1.604990 -2.474488 0
M  V30 51 H 3.208333 1.139671 -0.783745 0
M  V30 52 H 1.301090 -0.410084 0.970099 0
M  V30 53 H 2.184277 -4.490890 1.044503 0
M  V30 54 H 2.811942 -3.633060 -0.793560 0
M  V30 55 H 0.424387 -5.145765 -1.067210 0
M  V30 56 H -0.138273 -6.815310 0.393412 0
M  V30 57 H -1.666020 -5.599020 0.340691 0
M  V30 58 H -0.970137 -3.531010 -1.334345 0
M  V30 END ATOM
M  V30 BEGIN BOND
M  V30 1 1 1 2
M  V30 2 1 2 3
M  V30 3 1 3 4
M  V30 4 1 4 5
M  V30 5 1 5 6
M  V30 6 2 6 7
M  V30 7 1 7 8
M  V30 8 2 8 9
M  V30 9 1 9 10
M  V30 10 1 9 11
M  V30 11 1 11 12
M  V30 12 1 12 13
M  V30 13 2 13 14
M  V30 14 1 14 15
M  V30 15 2 15 16
M  V30 16 1 16 17
M  V30 17 1 17 18
M  V30 18 1 18 19
M  V30 19 1 19 20
M  V30 20 1 20 21
M  V30 21 1 21 22
M  V30 22 1 16 23
M  V30 23 2 23 24
M  V30 24 2 11 25
M  V30 25 1 5 26
M  V30 26 1 26 27
M  V30 27 1 26 28
M  V30 28 1 28 29
M  V30 29 1 28 30
M  V30 30 1 30 31
M  V30 31 1 30 3
M  V30 32 1 25 6
M  V30 33 1 24 13
M  V30 34 1 22 18
M  V30 35 1 1 32
M  V30 36 1 2 33
M  V30 37 1 2 34
M  V30 38 1 3 35 CFG=3
M  V30 39 1 5 36 CFG=3
M  V30 40 1 7 37
M  V30 41 1 8 38
M  V30 42 1 12 39
M  V30 43 1 12 40
M  V30 44 1 14 41
M  V30 45 1 15 42
M  V30 46 1 18 43 CFG=1
M  V30 47 1 19 44
M  V30 48 1 19 45
M  V30 49 1 20 46
M  V30 50 1 20 47
M  V30 51 1 22 48
M  V30 52 1 22 49
M  V30 53 1 23 50
M  V30 54 1 24 51
M  V30 55 1 25 52
M  V30 56 1 26 53 CFG=1
M  V30 57 1 27 54
M  V30 58 1 28 55 CFG=3
M  V30 59 1 29 56
M  V30 60 1 30 57 CFG=1
M  V30 61 1 31 58
M  V30 END BOND
M  V30 END CTAB
M  END
>  <Dataset>  (333) 
OralDrugs

>  <Ligand_Instance>  (333) 
nan

>  <PDB_ID>  (333) 
nan

>  <Standardized_SMILES>  (333) 
OC[C@H]1O[C@@H](c2ccc(Cl)c(Cc3ccc(O[C@H]4CCOC4)cc3)c2)[C@H](O)[C@@H](O)[C@@H]1O

>  <Name>  (333) 
Empagliflozin

>  <Pocket>  (333) 
nan

>  <ATP_Site>  (333) 
nan

>  <Peripheral>  (333) 
nan

>  <Num_H_Atoms_ProtBoundConf>  (333) 
nan

>  <Num_Resolved_Atoms>  (333) 
nan

>  <Num_Not_Resolved_Atoms>  (333) 
nan

$$$$
CHEMBL3989908
     RDKit          3D

  0  0  0  0  0  0  0  0  0  0999 V3000
M  V30 BEGIN CTAB
M  V30 COUNTS 50 52 0 0 0
M  V30 BEGIN ATOM
M  V30 1 C 4.124072 -1.054377 1.331321 0
M  V30 2 C 3.966538 -1.102595 2.835911 0
M  V30 3 C 3.582051 -2.484406 3.298215 0
M  V30 4 O 5.245914 -0.840058 3.398574 0
M  V30 5 C 3.073623 -0.013178 3.356165 0
M  V30 6 N 1.712489 -0.068835 2.922041 0
M  V30 7 C 0.972986 -0.017242 1.720861 0
M  V30 8 N 0.491868 1.141986 1.223866 0
M  V30 9 C -0.212841 1.249068 0.085198 0
M  V30 10 N -0.653470 2.547352 -0.278120 0
M  V30 11 C -2.005966 3.043619 -0.174012 0
M  V30 12 C -2.319825 4.390364 -0.385908 0
M  V30 13 C -3.632307 4.785652 -0.289982 0
M  V30 14 N -4.635155 3.913536 0.003692 0
M  V30 15 C -4.342595 2.596658 0.213254 0
M  V30 16 C -5.417453 1.581812 0.530443 0
M  V30 17 F -4.909853 0.788041 1.537326 0
M  V30 18 F -5.537497 0.790248 -0.620566 0
M  V30 19 F -6.608510 2.184391 0.837944 0
M  V30 20 C -3.040547 2.171385 0.124885 0
M  V30 21 N -0.420130 0.091058 -0.556899 0
M  V30 22 C 0.019673 -1.089345 -0.130898 0
M  V30 23 C -0.248255 -2.306633 -0.877954 0
M  V30 24 C -0.943910 -2.357856 -2.043866 0
M  V30 25 C -1.157228 -3.559387 -2.689176 0
M  V30 26 C -0.683002 -4.753461 -2.192946 0
M  V30 27 C 0.017437 -4.667521 -1.010340 0
M  V30 28 C 0.631412 -5.824692 -0.260799 0
M  V30 29 F 0.068608 -6.992042 -0.686674 0
M  V30 30 F 1.984205 -5.782663 -0.519482 0
M  V30 31 F 0.416790 -5.657827 1.091899 0
M  V30 32 N 0.209075 -3.486778 -0.405862 0
M  V30 33 N 0.721645 -1.135759 1.017800 0
M  V30 34 H 3.539336 -1.823905 0.831757 0
M  V30 35 H 3.801120 -0.072234 0.931860 0
M  V30 36 H 5.199756 -1.259338 1.086018 0
M  V30 37 H 4.470706 -3.145101 3.096991 0
M  V30 38 H 3.443381 -2.460024 4.394489 0
M  V30 39 H 2.743998 -2.937004 2.742421 0
M  V30 40 H 5.667833 -0.164074 2.816537 0
M  V30 41 H 3.146849 -0.004034 4.457207 0
M  V30 42 H 3.506619 0.948259 2.943890 0
M  V30 43 H 0.901077 -0.177273 3.575100 0
M  V30 44 H 0.108878 3.126901 -0.635825 0
M  V30 45 H -1.527517 5.102974 -0.621876 0
M  V30 46 H -3.917240 5.824868 -0.445314 0
M  V30 47 H -2.816837 1.115602 0.293437 0
M  V30 48 H -1.334258 -1.446416 -2.464419 0
M  V30 49 H -1.708818 -3.614891 -3.623755 0
M  V30 50 H -0.793205 -5.736264 -2.615164 0
M  V30 END ATOM
M  V30 BEGIN BOND
M  V30 1 1 1 2
M  V30 2 1 2 3
M  V30 3 1 2 4
M  V30 4 1 2 5
M  V30 5 1 5 6
M  V30 6 1 6 7
M  V30 7 2 7 8
M  V30 8 1 8 9
M  V30 9 1 9 10
M  V30 10 1 10 11
M  V30 11 2 11 12
M  V30 12 1 12 13
M  V30 13 2 13 14
M  V30 14 1 14 15
M  V30 15 1 15 16
M  V30 16 1 16 17
M  V30 17 1 16 18
M  V30 18 1 16 19
M  V30 19 2 15 20
M  V30 20 2 9 21
M  V30 21 1 21 22
M  V30 22 1 22 23
M  V30 23 2 23 24
M  V30 24 1 24 25
M  V30 25 2 25 26
M  V30 26 1 26 27
M  V30 27 1 27 28
M  V30 28 1 28 29
M  V30 29 1 28 30
M  V30 30 1 28 31
M  V30 31 2 27 32
M  V30 32 2 22 33
M  V30 33 1 33 7
M  V30 34 1 20 11
M  V30 35 1 32 23
M  V30 36 1 1 34
M  V30 37 1 1 35
M  V30 38 1 1 36
M  V30 39 1 3 37
M  V30 40 1 3 38
M  V30 41 1 3 39
M  V30 42 1 4 40
M  V30 43 1 5 41
M  V30 44 1 5 42
M  V30 45 1 6 43
M  V30 46 1 10 44
M  V30 47 1 12 45
M  V30 48 1 13 46
M  V30 49 1 20 47
M  V30 50 1 24 48
M  V30 51 1 25 49
M  V30 52 1 26 50
M  V30 END BOND
M  V30 END CTAB
M  END
>  <Dataset>  (334) 
OralDrugs

>  <Ligand_Instance>  (334) 
nan

>  <PDB_ID>  (334) 
nan

>  <Standardized_SMILES>  (334) 
CC(C)(O)CNc1nc(Nc2ccnc(C(F)(F)F)c2)nc(-c2cccc(C(F)(F)F)n2)n1

>  <Name>  (334) 
Enasidenib

>  <Pocket>  (334) 
nan

>  <ATP_Site>  (334) 
nan

>  <Peripheral>  (334) 
nan

>  <Num_H_Atoms_ProtBoundConf>  (334) 
nan

>  <Num_Resolved_Atoms>  (334) 
nan

>  <Num_Not_Resolved_Atoms>  (334) 
nan

$$$$
CHEMBL3301612
     RDKit          3D

  0  0  0  0  0  0  0  0  0  0999 V3000
M  V30 BEGIN CTAB
M  V30 COUNTS 63 65 0 0 0
M  V30 BEGIN ATOM
M  V30 1 C 5.784614 -1.715903 6.817108 0
M  V30 2 O 4.607671 -2.004149 6.056007 0
M  V30 3 C 4.196213 -1.066988 5.114026 0
M  V30 4 O 4.951450 -0.074785 5.077403 0
M  V30 5 N 3.029974 -1.251385 4.293252 0
M  V30 6 C 2.764286 -0.136229 3.354754 0 CFG=1
M  V30 7 C 2.805946 -0.706766 1.949009 0
M  V30 8 C 1.365039 0.360514 3.621508 0
M  V30 9 N 0.936763 1.450680 2.825913 0
M  V30 10 C 0.593109 1.886670 1.551993 0
M  V30 11 N 0.262712 3.139657 1.114251 0
M  V30 12 C -0.056009 3.387945 -0.141684 0
M  V30 13 C -0.065454 2.381731 -1.058585 0
M  V30 14 C 0.258420 1.102353 -0.673045 0
M  V30 15 C 0.221181 0.100738 -1.728170 0
M  V30 16 C 0.934345 -0.125233 -2.891249 0
M  V30 17 N 0.446653 -1.230999 -3.480378 0
M  V30 18 C 0.960228 -1.781175 -4.742571 0
M  V30 19 C 0.391452 -3.174216 -4.909339 0
M  V30 20 C 0.575702 -0.959464 -5.933759 0
M  V30 21 N -0.554518 -1.728404 -2.742445 0
M  V30 22 C -0.699661 -0.924288 -1.673012 0
M  V30 23 C -1.763214 -1.331724 -0.759977 0
M  V30 24 C -1.754623 -2.577388 -0.124087 0
M  V30 25 C -2.804040 -2.900640 0.730693 0
M  V30 26 Cl -2.779039 -4.465073 1.520296 0
M  V30 27 C -3.820460 -1.994860 0.931095 0
M  V30 28 C -3.873133 -0.752784 0.326127 0
M  V30 29 N -4.921430 0.182379 0.539050 0
M  V30 30 S -6.370955 -0.257145 1.397195 0
M  V30 31 C -7.218565 -1.567617 0.514716 0
M  V30 32 O -7.241420 0.929632 1.623269 0
M  V30 33 O -6.035263 -0.833411 2.748416 0
M  V30 34 C -2.816069 -0.480242 -0.507640 0
M  V30 35 F -2.802270 0.720693 -1.133570 0
M  V30 36 N 0.561770 0.953381 0.598321 0
M  V30 37 H 5.858717 -2.317657 7.722727 0
M  V30 38 H 5.733518 -0.628863 7.054165 0
M  V30 39 H 6.663292 -1.817906 6.126769 0
M  V30 40 H 2.457324 -2.109396 4.388574 0
M  V30 41 H 3.527491 0.624917 3.490547 0
M  V30 42 H 3.573064 -1.541827 1.900078 0
M  V30 43 H 1.859798 -1.210851 1.680713 0
M  V30 44 H 3.082896 0.081835 1.248720 0
M  V30 45 H 1.332958 0.578284 4.715767 0
M  V30 46 H 0.646115 -0.495309 3.504507 0
M  V30 47 H 0.827117 2.308693 3.443853 0
M  V30 48 H -0.280065 4.435410 -0.268342 0
M  V30 49 H -0.334389 2.657538 -2.059523 0
M  V30 50 H 1.729845 0.547890 -3.172142 0
M  V30 51 H 2.068212 -1.841448 -4.592784 0
M  V30 52 H -0.637661 -3.055835 -5.320860 0
M  V30 53 H 0.312895 -3.730871 -3.954128 0
M  V30 54 H 0.969999 -3.759707 -5.661749 0
M  V30 55 H -0.346568 -0.370000 -5.802934 0
M  V30 56 H 0.421497 -1.629143 -6.804084 0
M  V30 57 H 1.450655 -0.313124 -6.220213 0
M  V30 58 H -0.924608 -3.217521 -0.338471 0
M  V30 59 H -4.613438 -2.290321 1.603532 0
M  V30 60 H -4.793748 1.141673 0.163318 0
M  V30 61 H -7.148700 -1.401031 -0.586729 0
M  V30 62 H -8.309358 -1.560005 0.752237 0
M  V30 63 H -6.853731 -2.573499 0.801859 0
M  V30 END ATOM
M  V30 BEGIN BOND
M  V30 1 1 1 2
M  V30 2 1 2 3
M  V30 3 2 3 4
M  V30 4 1 3 5
M  V30 5 1 5 6
M  V30 6 1 6 7
M  V30 7 1 6 8
M  V30 8 1 8 9
M  V30 9 1 9 10
M  V30 10 2 10 11
M  V30 11 1 11 12
M  V30 12 2 12 13
M  V30 13 1 13 14
M  V30 14 1 14 15
M  V30 15 2 15 16
M  V30 16 1 16 17
M  V30 17 1 17 18
M  V30 18 1 18 19
M  V30 19 1 18 20
M  V30 20 1 17 21
M  V30 21 2 21 22
M  V30 22 1 22 23
M  V30 23 2 23 24
M  V30 24 1 24 25
M  V30 25 1 25 26
M  V30 26 2 25 27
M  V30 27 1 27 28
M  V30 28 1 28 29
M  V30 29 1 29 30
M  V30 30 1 30 31
M  V30 31 2 30 32
M  V30 32 2 30 33
M  V30 33 2 28 34
M  V30 34 1 34 35
M  V30 35 2 14 36
M  V30 36 1 36 10
M  V30 37 1 22 15
M  V30 38 1 34 23
M  V30 39 1 1 37
M  V30 40 1 1 38
M  V30 41 1 1 39
M  V30 42 1 5 40
M  V30 43 1 6 41 CFG=3
M  V30 44 1 7 42
M  V30 45 1 7 43
M  V30 46 1 7 44
M  V30 47 1 8 45
M  V30 48 1 8 46
M  V30 49 1 9 47
M  V30 50 1 12 48
M  V30 51 1 13 49
M  V30 52 1 16 50
M  V30 53 1 18 51
M  V30 54 1 19 52
M  V30 55 1 19 53
M  V30 56 1 19 54
M  V30 57 1 20 55
M  V30 58 1 20 56
M  V30 59 1 20 57
M  V30 60 1 24 58
M  V30 61 1 27 59
M  V30 62 1 29 60
M  V30 63 1 31 61
M  V30 64 1 31 62
M  V30 65 1 31 63
M  V30 END BOND
M  V30 END CTAB
M  END
>  <Dataset>  (335) 
OralDrugs

>  <Ligand_Instance>  (335) 
nan

>  <PDB_ID>  (335) 
nan

>  <Standardized_SMILES>  (335) 
COC(=O)N[C@@H](C)CNc1nccc(-c2cn(C(C)C)nc2-c2cc(Cl)cc(NS(C)(=O)=O)c2F)n1

>  <Name>  (335) 
Encorafenib

>  <Pocket>  (335) 
nan

>  <ATP_Site>  (335) 
nan

>  <Peripheral>  (335) 
nan

>  <Num_H_Atoms_ProtBoundConf>  (335) 
nan

>  <Num_Resolved_Atoms>  (335) 
nan

>  <Num_Not_Resolved_Atoms>  (335) 
nan

$$$$
CHEMBL826
     RDKit          3D

  0  0  0  0  0  0  0  0  0  0999 V3000
M  V30 BEGIN CTAB
M  V30 COUNTS 40 42 0 0 0
M  V30 BEGIN ATOM
M  V30 1 C -0.062038 -3.687659 0.422231 0
M  V30 2 C 0.985485 -2.862848 1.098301 0
M  V30 3 N 1.685346 -1.960780 0.200128 0
M  V30 4 C 2.819199 -2.336885 -0.459576 0
M  V30 5 C 3.407199 -1.404269 -1.289816 0
M  V30 6 C 4.611593 -1.898284 -1.949640 0
M  V30 7 O 5.166740 -3.028717 -1.863033 0
M  V30 8 O 5.475275 -1.290377 -2.839279 0
M  V30 9 C 2.908607 -0.131088 -1.479253 0
M  V30 10 O 3.496058 0.650546 -2.243743 0
M  V30 11 C 1.751880 0.176685 -0.773376 0
M  V30 12 C 1.236470 1.444220 -0.948141 0
M  V30 13 C 0.084868 1.805708 -0.269205 0
M  V30 14 F -0.516126 3.013257 -0.355922 0
M  V30 15 C -0.508039 0.878111 0.562419 0
M  V30 16 N -1.693190 1.077746 1.335769 0
M  V30 17 C -1.713431 2.143200 2.344298 0
M  V30 18 C -1.776204 1.510956 3.716294 0
M  V30 19 N -2.277437 0.179922 3.705819 0
M  V30 20 C -3.267878 -0.110797 2.717003 0
M  V30 21 C -2.984906 0.402689 1.342016 0
M  V30 22 N 0.020700 -0.369768 0.719007 0
M  V30 23 C 1.144961 -0.736268 0.062076 0
M  V30 24 H -0.012677 -4.744921 0.749486 0
M  V30 25 H -1.084266 -3.340176 0.739156 0
M  V30 26 H 0.065912 -3.614310 -0.661822 0
M  V30 27 H 1.750217 -3.569592 1.530974 0
M  V30 28 H 0.551498 -2.342066 1.965644 0
M  V30 29 H 3.194842 -3.338158 -0.298638 0
M  V30 30 H 6.441435 -1.024402 -2.594415 0
M  V30 31 H 1.693051 2.181663 -1.598578 0
M  V30 32 H -2.620498 2.767328 2.243773 0
M  V30 33 H -0.849039 2.813678 2.222839 0
M  V30 34 H -2.304508 2.162927 4.467736 0
M  V30 35 H -0.714513 1.473612 4.072627 0
M  V30 36 H -1.539363 -0.518254 3.818245 0
M  V30 37 H -4.301673 0.219224 3.017036 0
M  V30 38 H -3.342525 -1.223221 2.654109 0
M  V30 39 H -3.732362 1.189048 1.057343 0
M  V30 40 H -2.987182 -0.406125 0.565936 0
M  V30 END ATOM
M  V30 BEGIN BOND
M  V30 1 1 1 2
M  V30 2 1 2 3
M  V30 3 1 3 4
M  V30 4 2 4 5
M  V30 5 1 5 6
M  V30 6 2 6 7
M  V30 7 1 6 8
M  V30 8 1 5 9
M  V30 9 2 9 10
M  V30 10 1 9 11
M  V30 11 2 11 12
M  V30 12 1 12 13
M  V30 13 1 13 14
M  V30 14 2 13 15
M  V30 15 1 15 16
M  V30 16 1 16 17
M  V30 17 1 17 18
M  V30 18 1 18 19
M  V30 19 1 19 20
M  V30 20 1 20 21
M  V30 21 1 15 22
M  V30 22 2 22 23
M  V30 23 1 23 3
M  V30 24 1 23 11
M  V30 25 1 21 16
M  V30 26 1 1 24
M  V30 27 1 1 25
M  V30 28 1 1 26
M  V30 29 1 2 27
M  V30 30 1 2 28
M  V30 31 1 4 29
M  V30 32 1 8 30
M  V30 33 1 12 31
M  V30 34 1 17 32
M  V30 35 1 17 33
M  V30 36 1 18 34
M  V30 37 1 18 35
M  V30 38 1 19 36
M  V30 39 1 20 37
M  V30 40 1 20 38
M  V30 41 1 21 39
M  V30 42 1 21 40
M  V30 END BOND
M  V30 END CTAB
M  END
>  <Dataset>  (336) 
OralDrugs

>  <Ligand_Instance>  (336) 
nan

>  <PDB_ID>  (336) 
nan

>  <Standardized_SMILES>  (336) 
CCn1cc(C(=O)O)c(=O)c2cc(F)c(N3CCNCC3)nc21

>  <Name>  (336) 
Enoxacin

>  <Pocket>  (336) 
nan

>  <ATP_Site>  (336) 
nan

>  <Peripheral>  (336) 
nan

>  <Num_H_Atoms_ProtBoundConf>  (336) 
nan

>  <Num_Resolved_Atoms>  (336) 
nan

>  <Num_Not_Resolved_Atoms>  (336) 
nan

$$$$
CHEMBL953
     RDKit          3D

  0  0  0  0  0  0  0  0  0  0999 V3000
M  V30 BEGIN CTAB
M  V30 COUNTS 37 37 0 0 0
M  V30 BEGIN ATOM
M  V30 1 C -0.711680 -5.236774 -0.858359 0
M  V30 2 C 0.646668 -4.614144 -1.109896 0
M  V30 3 N 0.852195 -3.440061 -0.297979 0
M  V30 4 C 1.525386 -3.670083 0.984522 0
M  V30 5 C 0.589730 -3.912518 2.118151 0
M  V30 6 C 0.515182 -2.059290 -0.572340 0
M  V30 7 O 0.295223 -2.957499 -1.393096 0
M  V30 8 C 0.672967 -0.887090 0.206184 0
M  V30 9 C 1.182819 -0.661487 1.505242 0
M  V30 10 N 1.590836 -0.498054 2.557809 0
M  V30 11 C 0.231098 0.136109 -0.495851 0
M  V30 12 C 0.201596 1.529437 -0.070796 0
M  V30 13 C 0.641382 2.674816 -0.716823 0
M  V30 14 C 0.430978 3.901804 -0.125442 0
M  V30 15 O 0.901554 5.025759 -0.830208 0
M  V30 16 C -0.198579 4.064966 1.085723 0
M  V30 17 O -0.375628 5.356035 1.619493 0
M  V30 18 C -0.643660 2.927805 1.745645 0
M  V30 19 N -1.318285 3.088562 3.003136 0 CHG=1 VAL=4
M  V30 20 O -1.268372 2.149519 3.816948 0
M  V30 21 O -1.991622 4.242578 3.286256 0 CHG=-1 VAL=1
M  V30 22 C -0.438764 1.698776 1.166389 0
M  V30 23 H -1.388187 -4.984430 -1.693076 0
M  V30 24 H -1.180915 -4.892899 0.066030 0
M  V30 25 H -0.577665 -6.351294 -0.896360 0
M  V30 26 H 0.773686 -4.435734 -2.171781 0
M  V30 27 H 1.439741 -5.355922 -0.818304 0
M  V30 28 H 2.225346 -2.854246 1.250360 0
M  V30 29 H 2.213578 -4.556897 0.813915 0
M  V30 30 H -0.395285 -3.407512 2.033026 0
M  V30 31 H 0.432273 -5.004504 2.326621 0
M  V30 32 H 1.011935 -3.510163 3.093373 0
M  V30 33 H -0.190202 0.224704 -1.497889 0
M  V30 34 H 1.123497 2.465104 -1.650298 0
M  V30 35 H 1.713556 5.459963 -0.384764 0
M  V30 36 H -0.115345 5.501730 2.585950 0
M  V30 37 H -0.819387 0.886510 1.761460 0
M  V30 END ATOM
M  V30 BEGIN BOND
M  V30 1 1 1 2
M  V30 2 1 2 3
M  V30 3 1 3 4
M  V30 4 1 4 5
M  V30 5 1 3 6
M  V30 6 2 6 7
M  V30 7 1 6 8
M  V30 8 1 8 9
M  V30 9 3 9 10
M  V30 10 2 8 11
M  V30 11 1 11 12
M  V30 12 2 12 13
M  V30 13 1 13 14
M  V30 14 1 14 15
M  V30 15 2 14 16
M  V30 16 1 16 17
M  V30 17 1 16 18
M  V30 18 1 18 19
M  V30 19 2 19 20
M  V30 20 1 19 21
M  V30 21 2 18 22
M  V30 22 1 22 12
M  V30 23 1 1 23
M  V30 24 1 1 24
M  V30 25 1 1 25
M  V30 26 1 2 26
M  V30 27 1 2 27
M  V30 28 1 4 28
M  V30 29 1 4 29
M  V30 30 1 5 30
M  V30 31 1 5 31
M  V30 32 1 5 32
M  V30 33 1 11 33
M  V30 34 1 13 34
M  V30 35 1 15 35
M  V30 36 1 17 36
M  V30 37 1 22 37
M  V30 END BOND
M  V30 END CTAB
M  END
>  <Dataset>  (337) 
OralDrugs

>  <Ligand_Instance>  (337) 
nan

>  <PDB_ID>  (337) 
nan

>  <Standardized_SMILES>  (337) 
CCN(CC)C(=O)/C(C#N)=C/c1cc(O)c(O)c([N+](=O)[O-])c1

>  <Name>  (337) 
Entacapone

>  <Pocket>  (337) 
nan

>  <ATP_Site>  (337) 
nan

>  <Peripheral>  (337) 
nan

>  <Num_H_Atoms_ProtBoundConf>  (337) 
nan

>  <Num_Resolved_Atoms>  (337) 
nan

>  <Num_Not_Resolved_Atoms>  (337) 
nan

$$$$
CHEMBL1983268
     RDKit          3D

  0  0  0  0  0  0  0  0  0  0999 V3000
M  V30 BEGIN CTAB
M  V30 COUNTS 75 80 0 0 0
M  V30 BEGIN ATOM
M  V30 1 C 3.284477 -0.848428 6.909951 0
M  V30 2 N 4.259841 -1.417299 6.008601 0
M  V30 3 C 3.719442 -2.485567 5.190807 0
M  V30 4 C 3.861321 -2.179743 3.712021 0
M  V30 5 N 3.363792 -0.880845 3.345273 0
M  V30 6 C 2.417503 -0.564041 2.340657 0
M  V30 7 C 1.853661 -1.461690 1.473613 0
M  V30 8 C 0.932626 -1.162533 0.500260 0
M  V30 9 C 0.555534 0.156138 0.402614 0
M  V30 10 C -0.423064 0.436398 -0.630667 0
M  V30 11 O -1.048696 1.417498 -1.086785 0
M  V30 12 N -0.958783 -0.557957 -1.486625 0
M  V30 13 C -1.930319 -0.286806 -2.513604 0
M  V30 14 N -2.540368 0.823717 -2.927263 0
M  V30 15 N -3.379163 0.620770 -3.917976 0
M  V30 16 C -3.369464 -0.682820 -4.225095 0
M  V30 17 C -4.043630 -1.455863 -5.170383 0
M  V30 18 C -3.807564 -2.823478 -5.238446 0
M  V30 19 C -2.915287 -3.439137 -4.386938 0
M  V30 20 C -2.608432 -4.879415 -4.394119 0
M  V30 21 C -3.504594 -5.659701 -3.502146 0
M  V30 22 C -4.686970 -6.184000 -3.989486 0
M  V30 23 C -5.487799 -6.899139 -3.133593 0
M  V30 24 F -6.668807 -7.448786 -3.537080 0
M  V30 25 C -5.148177 -7.108435 -1.808969 0
M  V30 26 C -3.974127 -6.595013 -1.302274 0
M  V30 27 F -3.620101 -6.789170 -0.003662 0
M  V30 28 C -3.164771 -5.868228 -2.179659 0
M  V30 29 C -2.286693 -2.614559 -3.480825 0
M  V30 30 C -2.473040 -1.235319 -3.353959 0
M  V30 31 C 1.073422 1.119806 1.233635 0
M  V30 32 N 0.729149 2.461831 1.171930 0
M  V30 33 C 0.097074 3.657879 0.737226 0
M  V30 34 C 0.482994 4.117351 -0.650483 0
M  V30 35 C 1.158129 5.461594 -0.678799 0
M  V30 36 O 1.964487 5.609403 0.442346 0
M  V30 37 C 1.213770 5.754039 1.604987 0
M  V30 38 C 0.061113 4.817023 1.707873 0
M  V30 39 C 2.009062 0.734262 2.202217 0
M  V30 40 C 3.965607 0.155924 4.153504 0
M  V30 41 C 4.896663 -0.397957 5.191064 0
M  V30 42 H 3.081183 0.224041 6.715020 0
M  V30 43 H 3.678089 -0.950806 7.937460 0
M  V30 44 H 2.311960 -1.365288 6.840330 0
M  V30 45 H 4.346570 -3.373993 5.404198 0
M  V30 46 H 2.689429 -2.728498 5.493076 0
M  V30 47 H 3.299811 -2.975647 3.190517 0
M  V30 48 H 4.942193 -2.284912 3.471315 0
M  V30 49 H 2.194979 -2.476766 1.605238 0
M  V30 50 H 0.639731 -2.031648 -0.052727 0
M  V30 51 H -0.660761 -1.586357 -1.412256 0
M  V30 52 H -3.950948 1.372289 -4.377065 0
M  V30 53 H -4.737400 -0.968732 -5.830293 0
M  V30 54 H -4.321662 -3.451222 -5.966893 0
M  V30 55 H -1.554003 -5.084022 -4.055581 0
M  V30 56 H -2.632412 -5.272730 -5.431428 0
M  V30 57 H -4.979597 -6.039078 -5.016796 0
M  V30 58 H -5.751036 -7.668477 -1.092164 0
M  V30 59 H -2.249649 -5.463116 -1.798701 0
M  V30 60 H -1.576600 -3.071652 -2.795884 0
M  V30 61 H 1.244412 3.046115 1.857402 0
M  V30 62 H -1.011199 3.386273 0.638185 0
M  V30 63 H 1.176078 3.379434 -1.117763 0
M  V30 64 H -0.378605 4.190846 -1.341599 0
M  V30 65 H 0.461225 6.318641 -0.672129 0
M  V30 66 H 1.835209 5.538736 -1.559725 0
M  V30 67 H 0.835788 6.818254 1.584142 0
M  V30 68 H 1.908265 5.701692 2.467921 0
M  V30 69 H 0.121694 4.342389 2.729084 0
M  V30 70 H -0.904860 5.349027 1.695250 0
M  V30 71 H 2.456228 1.454172 2.893151 0
M  V30 72 H 3.198064 0.776734 4.669309 0
M  V30 73 H 4.582203 0.820983 3.495761 0
M  V30 74 H 5.196481 0.423442 5.865165 0
M  V30 75 H 5.805438 -0.848946 4.739581 0
M  V30 END ATOM
M  V30 BEGIN BOND
M  V30 1 1 1 2
M  V30 2 1 2 3
M  V30 3 1 3 4
M  V30 4 1 4 5
M  V30 5 1 5 6
M  V30 6 2 6 7
M  V30 7 1 7 8
M  V30 8 2 8 9
M  V30 9 1 9 10
M  V30 10 2 10 11
M  V30 11 1 10 12
M  V30 12 1 12 13
M  V30 13 2 13 14
M  V30 14 1 14 15
M  V30 15 1 15 16
M  V30 16 2 16 17
M  V30 17 1 17 18
M  V30 18 2 18 19
M  V30 19 1 19 20
M  V30 20 1 20 21
M  V30 21 2 21 22
M  V30 22 1 22 23
M  V30 23 1 23 24
M  V30 24 2 23 25
M  V30 25 1 25 26
M  V30 26 1 26 27
M  V30 27 2 26 28
M  V30 28 1 19 29
M  V30 29 2 29 30
M  V30 30 1 9 31
M  V30 31 1 31 32
M  V30 32 1 32 33
M  V30 33 1 33 34
M  V30 34 1 34 35
M  V30 35 1 35 36
M  V30 36 1 36 37
M  V30 37 1 37 38
M  V30 38 2 31 39
M  V30 39 1 5 40
M  V30 40 1 40 41
M  V30 41 1 41 2
M  V30 42 1 39 6
M  V30 43 1 30 13
M  V30 44 1 38 33
M  V30 45 1 30 16
M  V30 46 1 28 21
M  V30 47 1 1 42
M  V30 48 1 1 43
M  V30 49 1 1 44
M  V30 50 1 3 45
M  V30 51 1 3 46
M  V30 52 1 4 47
M  V30 53 1 4 48
M  V30 54 1 7 49
M  V30 55 1 8 50
M  V30 56 1 12 51
M  V30 57 1 15 52
M  V30 58 1 17 53
M  V30 59 1 18 54
M  V30 60 1 20 55
M  V30 61 1 20 56
M  V30 62 1 22 57
M  V30 63 1 25 58
M  V30 64 1 28 59
M  V30 65 1 29 60
M  V30 66 1 32 61
M  V30 67 1 33 62
M  V30 68 1 34 63
M  V30 69 1 34 64
M  V30 70 1 35 65
M  V30 71 1 35 66
M  V30 72 1 37 67
M  V30 73 1 37 68
M  V30 74 1 38 69
M  V30 75 1 38 70
M  V30 76 1 39 71
M  V30 77 1 40 72
M  V30 78 1 40 73
M  V30 79 1 41 74
M  V30 80 1 41 75
M  V30 END BOND
M  V30 END CTAB
M  END
>  <Dataset>  (338) 
OralDrugs

>  <Ligand_Instance>  (338) 
nan

>  <PDB_ID>  (338) 
nan

>  <Standardized_SMILES>  (338) 
CN1CCN(c2ccc(C(=O)Nc3n[nH]c4ccc(Cc5cc(F)cc(F)c5)cc34)c(NC3CCOCC3)c2)CC1

>  <Name>  (338) 
Entrectinib

>  <Pocket>  (338) 
nan

>  <ATP_Site>  (338) 
nan

>  <Peripheral>  (338) 
nan

>  <Num_H_Atoms_ProtBoundConf>  (338) 
nan

>  <Num_Resolved_Atoms>  (338) 
nan

>  <Num_Not_Resolved_Atoms>  (338) 
nan

$$$$
CHEMBL1082407
     RDKit          3D

  0  0  0  0  0  0  0  0  0  0999 V3000
M  V30 BEGIN CTAB
M  V30 COUNTS 48 50 0 0 0
M  V30 BEGIN ATOM
M  V30 1 C 5.264094 -5.984562 3.933656 0
M  V30 2 N 4.612909 -5.022940 3.091449 0
M  V30 3 C 3.243447 -4.687291 3.243184 0
M  V30 4 O 2.774914 -5.377642 4.212910 0
M  V30 5 C 2.464961 -3.741874 2.469264 0
M  V30 6 C 1.129024 -3.643237 2.876003 0
M  V30 7 C 0.256186 -2.788270 2.241621 0
M  V30 8 C 0.634667 -1.988615 1.184046 0
M  V30 9 N -0.215034 -1.085582 0.485835 0
M  V30 10 C -0.382568 0.276809 0.868378 0
M  V30 11 S 0.037171 1.056438 2.242380 0
M  V30 12 N -1.038560 0.927359 -0.239387 0
M  V30 13 C -1.419664 2.300222 -0.329511 0
M  V30 14 C -0.483274 3.182544 -0.862556 0
M  V30 15 C -0.725308 4.553163 -1.008234 0
M  V30 16 C -1.961264 5.029367 -0.595590 0
M  V30 17 C -2.194088 6.431915 -0.750641 0
M  V30 18 N -2.391621 7.572213 -0.858512 0
M  V30 19 C -2.896214 4.161983 -0.065772 0
M  V30 20 C -4.189399 4.720044 0.355365 0
M  V30 21 F -4.771947 5.293527 -0.770142 0
M  V30 22 F -4.023457 5.774891 1.256799 0
M  V30 23 F -5.000966 3.802903 0.962896 0
M  V30 24 C -2.641850 2.806669 0.072236 0
M  V30 25 C -1.272304 -0.021167 -1.290722 0
M  V30 26 O -1.613080 0.284331 -2.461092 0
M  V30 27 C -1.025226 -1.374115 -0.684980 0
M  V30 28 C -0.347043 -2.296503 -1.663237 0
M  V30 29 C -2.380333 -1.908027 -0.257917 0
M  V30 30 C 1.948636 -2.081644 0.779458 0
M  V30 31 C 2.819935 -2.935675 1.413367 0
M  V30 32 F 4.110995 -3.049856 1.041786 0
M  V30 33 H 5.904775 -5.390237 4.648292 0
M  V30 34 H 4.579929 -6.620959 4.495705 0
M  V30 35 H 5.994895 -6.577053 3.315912 0
M  V30 36 H 5.149959 -4.545238 2.337216 0
M  V30 37 H 0.716996 -4.234302 3.709096 0
M  V30 38 H -0.763317 -2.727638 2.568712 0
M  V30 39 H 0.493503 2.823679 -1.191771 0
M  V30 40 H 0.057996 5.190094 -1.436215 0
M  V30 41 H -3.361726 2.105154 0.486131 0
M  V30 42 H -0.410814 -1.945860 -2.706247 0
M  V30 43 H -0.912705 -3.267708 -1.645578 0
M  V30 44 H 0.703400 -2.508165 -1.453189 0
M  V30 45 H -2.241861 -2.627199 0.585651 0
M  V30 46 H -2.799972 -2.430825 -1.154857 0
M  V30 47 H -3.049846 -1.088875 0.075006 0
M  V30 48 H 2.359073 -1.509459 -0.031481 0
M  V30 END ATOM
M  V30 BEGIN BOND
M  V30 1 1 1 2
M  V30 2 1 2 3
M  V30 3 2 3 4
M  V30 4 1 3 5
M  V30 5 2 5 6
M  V30 6 1 6 7
M  V30 7 2 7 8
M  V30 8 1 8 9
M  V30 9 1 9 10
M  V30 10 2 10 11
M  V30 11 1 10 12
M  V30 12 1 12 13
M  V30 13 2 13 14
M  V30 14 1 14 15
M  V30 15 2 15 16
M  V30 16 1 16 17
M  V30 17 3 17 18
M  V30 18 1 16 19
M  V30 19 1 19 20
M  V30 20 1 20 21
M  V30 21 1 20 22
M  V30 22 1 20 23
M  V30 23 2 19 24
M  V30 24 1 12 25
M  V30 25 2 25 26
M  V30 26 1 25 27
M  V30 27 1 27 28
M  V30 28 1 27 29
M  V30 29 1 8 30
M  V30 30 2 30 31
M  V30 31 1 31 32
M  V30 32 1 31 5
M  V30 33 1 27 9
M  V30 34 1 24 13
M  V30 35 1 1 33
M  V30 36 1 1 34
M  V30 37 1 1 35
M  V30 38 1 2 36
M  V30 39 1 6 37
M  V30 40 1 7 38
M  V30 41 1 14 39
M  V30 42 1 15 40
M  V30 43 1 24 41
M  V30 44 1 28 42
M  V30 45 1 28 43
M  V30 46 1 28 44
M  V30 47 1 29 45
M  V30 48 1 29 46
M  V30 49 1 29 47
M  V30 50 1 30 48
M  V30 END BOND
M  V30 END CTAB
M  END
>  <Dataset>  (339) 
OralDrugs

>  <Ligand_Instance>  (339) 
nan

>  <PDB_ID>  (339) 
nan

>  <Standardized_SMILES>  (339) 
CNC(=O)c1ccc(N2C(=S)N(c3ccc(C#N)c(C(F)(F)F)c3)C(=O)C2(C)C)cc1F

>  <Name>  (339) 
Enzalutamide

>  <Pocket>  (339) 
nan

>  <ATP_Site>  (339) 
nan

>  <Peripheral>  (339) 
nan

>  <Num_H_Atoms_ProtBoundConf>  (339) 
nan

>  <Num_Resolved_Atoms>  (339) 
nan

>  <Num_Not_Resolved_Atoms>  (339) 
nan

$$$$
CHEMBL56337
     RDKit          3D

  0  0  0  0  0  0  0  0  0  0999 V3000
M  V30 BEGIN CTAB
M  V30 COUNTS 34 35 0 0 0
M  V30 BEGIN ATOM
M  V30 1 C -0.757479 -2.142864 0.742255 0
M  V30 2 C -0.764918 -0.683175 0.976331 0
M  V30 3 C 0.458907 0.106442 0.995689 0
M  V30 4 C 1.651031 -0.379151 0.838230 0
M  V30 5 S 2.060356 -2.124270 0.563721 0
M  V30 6 C 3.616712 -1.757282 -0.296684 0
M  V30 7 S 4.415894 -2.657084 -1.393817 0
M  V30 8 N 3.975231 -0.472171 0.229590 0
M  V30 9 C 5.370035 -0.015497 0.108045 0
M  V30 10 C 5.570366 0.739149 -1.164836 0
M  V30 11 O 6.760919 1.135234 -1.290637 0
M  V30 12 O 4.577193 0.979759 -2.098888 0
M  V30 13 C 2.951040 0.261629 0.828973 0
M  V30 14 O 3.116386 1.422223 1.342672 0
M  V30 15 C -1.860870 0.018112 1.187116 0
M  V30 16 C -3.246518 -0.359854 1.255178 0
M  V30 17 C -3.753947 -1.395674 1.968647 0
M  V30 18 C -5.078141 -1.779938 2.017820 0
M  V30 19 C -6.009124 -1.056802 1.276345 0
M  V30 20 C -5.580664 0.015021 0.520590 0
M  V30 21 C -4.235823 0.322112 0.535407 0
M  V30 22 H -0.220303 -2.621189 1.581168 0
M  V30 23 H -0.272624 -2.414763 -0.221134 0
M  V30 24 H -1.799637 -2.557703 0.782561 0
M  V30 25 H 0.480207 1.179384 1.146201 0
M  V30 26 H 6.080798 -0.853644 0.104473 0
M  V30 27 H 5.535835 0.694788 0.935300 0
M  V30 28 H 4.659820 1.839187 -2.635342 0
M  V30 29 H -1.829685 1.108490 1.360905 0
M  V30 30 H -3.138806 -2.013221 2.588052 0
M  V30 31 H -5.480983 -2.591744 2.575186 0
M  V30 32 H -7.051598 -1.271035 1.245607 0
M  V30 33 H -6.264574 0.596675 -0.063832 0
M  V30 34 H -3.936645 1.185372 -0.082648 0
M  V30 END ATOM
M  V30 BEGIN BOND
M  V30 1 1 1 2
M  V30 2 1 2 3
M  V30 3 2 3 4
M  V30 4 1 4 5
M  V30 5 1 5 6
M  V30 6 2 6 7
M  V30 7 1 6 8
M  V30 8 1 8 9
M  V30 9 1 9 10
M  V30 10 2 10 11
M  V30 11 1 10 12
M  V30 12 1 8 13
M  V30 13 2 13 14
M  V30 14 2 2 15
M  V30 15 1 15 16
M  V30 16 2 16 17
M  V30 17 1 17 18
M  V30 18 2 18 19
M  V30 19 1 19 20
M  V30 20 2 20 21
M  V30 21 1 13 4
M  V30 22 1 21 16
M  V30 23 1 1 22
M  V30 24 1 1 23
M  V30 25 1 1 24
M  V30 26 1 3 25
M  V30 27 1 9 26
M  V30 28 1 9 27
M  V30 29 1 12 28
M  V30 30 1 15 29
M  V30 31 1 17 30
M  V30 32 1 18 31
M  V30 33 1 19 32
M  V30 34 1 20 33
M  V30 35 1 21 34
M  V30 END BOND
M  V30 END CTAB
M  END
>  <Dataset>  (340) 
OralDrugs

>  <Ligand_Instance>  (340) 
nan

>  <PDB_ID>  (340) 
nan

>  <Standardized_SMILES>  (340) 
CC(/C=C1\SC(=S)N(CC(=O)O)C1=O)=C\c1ccccc1

>  <Name>  (340) 
Epalrestat

>  <Pocket>  (340) 
nan

>  <ATP_Site>  (340) 
nan

>  <Peripheral>  (340) 
nan

>  <Num_H_Atoms_ProtBoundConf>  (340) 
nan

>  <Num_Resolved_Atoms>  (340) 
nan

>  <Num_Not_Resolved_Atoms>  (340) 
nan

$$$$
CHEMBL1095097
     RDKit          3D

  0  0  0  0  0  0  0  0  0  0999 V3000
M  V30 BEGIN CTAB
M  V30 COUNTS 60 65 0 0 0
M  V30 BEGIN ATOM
M  V30 1 C 0.363791 5.162009 -0.266493 0
M  V30 2 O 0.524407 3.776069 -0.454836 0
M  V30 3 C 0.614563 2.850816 0.538855 0
M  V30 4 O 0.510115 3.630865 1.555370 0
M  V30 5 C 0.778483 1.413923 0.529738 0 CFG=2
M  V30 6 C 2.047441 1.036409 -0.157235 0
M  V30 7 C 2.138953 -0.450647 -0.184294 0
M  V30 8 C 3.049265 -0.928438 -1.052444 0
M  V30 9 C 3.254841 -2.386849 -1.191161 0
M  V30 10 O 3.652999 -2.847563 -2.281515 0
M  V30 11 C 2.926317 -3.110912 0.092310 0
M  V30 12 C 1.523573 -2.753321 0.414076 0
M  V30 13 C 1.264821 -1.288844 0.703920 0 CFG=1
M  V30 14 C 1.696010 -1.122416 2.160031 0
M  V30 15 C -0.132261 -0.890825 0.447083 0 CFG=1
M  V30 16 O -0.608679 -1.808553 -0.635982 0
M  V30 17 C -1.312260 -1.593319 0.515385 0 CFG=2
M  V30 18 C -2.598015 -0.896642 0.170916 0
M  V30 19 C -2.536003 0.184102 -0.810561 0 CFG=1
M  V30 20 C -3.321793 1.369829 -0.228496 0
M  V30 21 C -1.102807 0.697313 -1.042154 0 CFG=1
M  V30 22 C -1.395201 1.831223 -1.876951 0
M  V30 23 C -2.245097 1.112493 -2.941728 0
M  V30 24 C -2.991350 0.012421 -2.186044 0 CFG=1
M  V30 25 C -2.767661 -1.302892 -2.832194 0
M  V30 26 C -3.754705 -1.291866 -3.982920 0
M  V30 27 C -4.714934 -0.228529 -3.628719 0
M  V30 28 O -5.602436 0.028407 -4.508133 0
M  V30 29 O -4.394762 0.252321 -2.357924 0
M  V30 30 C -0.398323 0.581201 0.194340 0 CFG=2
M  V30 31 H 0.976242 5.506630 0.615962 0
M  V30 32 H 0.735502 5.746189 -1.145332 0
M  V30 33 H -0.670621 5.469129 -0.083963 0
M  V30 34 H 0.991681 1.195203 1.603762 0
M  V30 35 H 2.078268 1.511782 -1.142795 0
M  V30 36 H 2.943199 1.366791 0.414076 0
M  V30 37 H 3.647246 -0.246153 -1.666796 0
M  V30 38 H 2.927870 -4.176677 -0.192365 0
M  V30 39 H 3.660806 -2.868460 0.861087 0
M  V30 40 H 0.899593 -3.070536 -0.468223 0
M  V30 41 H 1.199387 -3.416375 1.229190 0
M  V30 42 H 0.845722 -0.848306 2.828062 0
M  V30 43 H 2.062498 -2.065346 2.622104 0
M  V30 44 H 2.584693 -0.454583 2.265409 0
M  V30 45 H -1.469265 -2.464757 1.189712 0
M  V30 46 H -3.309756 -1.718255 -0.137914 0
M  V30 47 H -3.025007 -0.583547 1.165273 0
M  V30 48 H -2.682523 2.051619 0.357104 0
M  V30 49 H -4.071179 0.990155 0.526771 0
M  V30 50 H -3.927390 1.889886 -0.983092 0
M  V30 51 H -0.708393 -0.094252 -1.755132 0
M  V30 52 H -0.563126 2.281915 -2.483219 0
M  V30 53 H -2.095888 2.614457 -1.513843 0
M  V30 54 H -1.550887 0.624449 -3.637504 0
M  V30 55 H -2.950558 1.804986 -3.439155 0
M  V30 56 H -1.746536 -1.427476 -3.249793 0
M  V30 57 H -2.992535 -2.168466 -2.216871 0
M  V30 58 H -3.266502 -1.019285 -4.941515 0
M  V30 59 H -4.270138 -2.279949 -4.108644 0
M  V30 60 H -1.133204 0.819782 1.031394 0
M  V30 END ATOM
M  V30 BEGIN BOND
M  V30 1 1 1 2
M  V30 2 1 2 3
M  V30 3 2 3 4
M  V30 4 1 3 5
M  V30 5 1 5 6
M  V30 6 1 6 7
M  V30 7 2 7 8
M  V30 8 1 8 9
M  V30 9 2 9 10
M  V30 10 1 9 11
M  V30 11 1 11 12
M  V30 12 1 12 13
M  V30 13 1 13 14 CFG=1
M  V30 14 1 13 15
M  V30 15 1 15 16 CFG=3
M  V30 16 1 16 17
M  V30 17 1 17 18
M  V30 18 1 18 19
M  V30 19 1 19 20 CFG=1
M  V30 20 1 19 21
M  V30 21 1 21 22
M  V30 22 1 22 23
M  V30 23 1 23 24
M  V30 24 1 24 25
M  V30 25 1 25 26
M  V30 26 1 26 27
M  V30 27 2 27 28
M  V30 28 1 27 29
M  V30 29 1 21 30
M  V30 30 1 30 5
M  V30 31 1 13 7
M  V30 32 1 17 15
M  V30 33 1 24 19
M  V30 34 1 30 15
M  V30 35 1 24 29 CFG=1
M  V30 36 1 1 31
M  V30 37 1 1 32
M  V30 38 1 1 33
M  V30 39 1 5 34 CFG=1
M  V30 40 1 6 35
M  V30 41 1 6 36
M  V30 42 1 8 37
M  V30 43 1 11 38
M  V30 44 1 11 39
M  V30 45 1 12 40
M  V30 46 1 12 41
M  V30 47 1 14 42
M  V30 48 1 14 43
M  V30 49 1 14 44
M  V30 50 1 17 45 CFG=1
M  V30 51 1 18 46
M  V30 52 1 18 47
M  V30 53 1 20 48
M  V30 54 1 20 49
M  V30 55 1 20 50
M  V30 56 1 21 51 CFG=3
M  V30 57 1 22 52
M  V30 58 1 22 53
M  V30 59 1 23 54
M  V30 60 1 23 55
M  V30 61 1 25 56
M  V30 62 1 25 57
M  V30 63 1 26 58
M  V30 64 1 26 59
M  V30 65 1 30 60 CFG=1
M  V30 END BOND
M  V30 END CTAB
M  END
>  <Dataset>  (341) 
OralDrugs

>  <Ligand_Instance>  (341) 
nan

>  <PDB_ID>  (341) 
nan

>  <Standardized_SMILES>  (341) 
COC(=O)[C@@H]1CC2=CC(=O)CC[C@]2(C)[C@@]23O[C@@H]2C[C@@]2(C)[C@@H](CC[C@@]24CCC(=O)O4)[C@H]13

>  <Name>  (341) 
Eplerenone

>  <Pocket>  (341) 
nan

>  <ATP_Site>  (341) 
nan

>  <Peripheral>  (341) 
nan

>  <Num_H_Atoms_ProtBoundConf>  (341) 
nan

>  <Num_Resolved_Atoms>  (341) 
nan

>  <Num_Not_Resolved_Atoms>  (341) 
nan

$$$$
CHEMBL813
     RDKit          3D

  0  0  0  0  0  0  0  0  0  0999 V3000
M  V30 BEGIN CTAB
M  V30 COUNTS 54 56 0 0 0
M  V30 BEGIN ATOM
M  V30 1 C 0.026654 0.653239 5.220145 0
M  V30 2 C 1.315841 -0.083348 4.919955 0
M  V30 3 C 1.003251 -1.479486 4.513989 0
M  V30 4 C 0.127148 -1.615082 3.293788 0
M  V30 5 C 0.751033 -1.024230 2.111191 0
M  V30 6 N 1.946046 -0.438853 2.027476 0
M  V30 7 C 2.118482 -0.029825 0.765113 0
M  V30 8 C 0.986803 -0.381211 0.064990 0
M  V30 9 C 0.882447 -0.029383 -1.341264 0
M  V30 10 C 1.107058 1.147438 -1.902463 0
M  V30 11 C 1.515778 2.379120 -1.208896 0
M  V30 12 C 0.531552 3.435236 -1.398610 0
M  V30 13 C 0.186884 4.546654 -2.200235 0
M  V30 14 C -0.952495 5.238623 -1.901468 0
M  V30 15 C -1.745376 4.863061 -0.846031 0
M  V30 16 S -0.852642 3.369922 -0.139318 0
M  V30 17 C 0.914694 1.147628 -3.347419 0
M  V30 18 O 0.567967 0.128571 -3.998387 0
M  V30 19 O 1.072324 2.208071 -4.196028 0
M  V30 20 N 0.109733 -1.012679 0.902444 0
M  V30 21 C -1.171721 -1.509197 0.517766 0
M  V30 22 C -1.266293 -2.886243 0.070954 0
M  V30 23 C -1.081990 -3.445640 -1.172829 0
M  V30 24 C -1.206133 -4.773535 -1.500971 0
M  V30 25 C -1.544814 -5.641852 -0.514727 0
M  V30 26 C -1.678498 -7.051648 -0.853339 0
M  V30 27 O -1.473976 -7.435426 -2.055725 0
M  V30 28 O -2.016904 -8.086646 0.005493 0
M  V30 29 C -1.750526 -5.193403 0.749609 0
M  V30 30 C -1.614639 -3.829221 1.048676 0
M  V30 31 H -0.494753 0.110309 6.025566 0
M  V30 32 H -0.536551 0.761367 4.287594 0
M  V30 33 H 0.259442 1.672744 5.612108 0
M  V30 34 H 1.891615 -0.150265 5.875708 0
M  V30 35 H 1.964857 0.396019 4.198645 0
M  V30 36 H 1.958897 -2.052017 4.377771 0
M  V30 37 H 0.481243 -1.956088 5.393006 0
M  V30 38 H -0.888649 -1.244380 3.536356 0
M  V30 39 H 0.104075 -2.734322 3.104414 0
M  V30 40 H 3.086944 0.458252 0.601995 0
M  V30 41 H 0.590227 -0.890584 -1.890886 0
M  V30 42 H 1.793994 2.226480 -0.157223 0
M  V30 43 H 2.464781 2.710692 -1.714575 0
M  V30 44 H 0.955678 4.629974 -2.941948 0
M  V30 45 H -1.146586 6.073935 -2.560770 0
M  V30 46 H -2.646590 5.386391 -0.585232 0
M  V30 47 H 1.111196 2.221790 -5.185623 0
M  V30 48 H -1.913106 -1.258158 1.325542 0
M  V30 49 H -1.533216 -0.868951 -0.344474 0
M  V30 50 H -0.819557 -2.756105 -1.957311 0
M  V30 51 H -1.037982 -5.091384 -2.503570 0
M  V30 52 H -2.718833 -8.744605 -0.312012 0
M  V30 53 H -2.019382 -5.943313 1.480097 0
M  V30 54 H -1.824476 -3.651890 2.109644 0
M  V30 END ATOM
M  V30 BEGIN BOND
M  V30 1 1 1 2
M  V30 2 1 2 3
M  V30 3 1 3 4
M  V30 4 1 4 5
M  V30 5 2 5 6
M  V30 6 1 6 7
M  V30 7 2 7 8
M  V30 8 1 8 9
M  V30 9 2 9 10
M  V30 10 1 10 11
M  V30 11 1 11 12
M  V30 12 2 12 13
M  V30 13 1 13 14
M  V30 14 2 14 15
M  V30 15 1 15 16
M  V30 16 1 10 17
M  V30 17 2 17 18
M  V30 18 1 17 19
M  V30 19 1 8 20
M  V30 20 1 20 21
M  V30 21 1 21 22
M  V30 22 2 22 23
M  V30 23 1 23 24
M  V30 24 2 24 25
M  V30 25 1 25 26
M  V30 26 2 26 27
M  V30 27 1 26 28
M  V30 28 1 25 29
M  V30 29 2 29 30
M  V30 30 1 20 5
M  V30 31 1 30 22
M  V30 32 1 16 12
M  V30 33 1 1 31
M  V30 34 1 1 32
M  V30 35 1 1 33
M  V30 36 1 2 34
M  V30 37 1 2 35
M  V30 38 1 3 36
M  V30 39 1 3 37
M  V30 40 1 4 38
M  V30 41 1 4 39
M  V30 42 1 7 40
M  V30 43 1 9 41
M  V30 44 1 11 42
M  V30 45 1 11 43
M  V30 46 1 13 44
M  V30 47 1 14 45
M  V30 48 1 15 46
M  V30 49 1 19 47
M  V30 50 1 21 48
M  V30 51 1 21 49
M  V30 52 1 23 50
M  V30 53 1 24 51
M  V30 54 1 28 52
M  V30 55 1 29 53
M  V30 56 1 30 54
M  V30 END BOND
M  V30 END CTAB
M  END
>  <Dataset>  (342) 
OralDrugs

>  <Ligand_Instance>  (342) 
nan

>  <PDB_ID>  (342) 
nan

>  <Standardized_SMILES>  (342) 
CCCCc1ncc(/C=C(\Cc2cccs2)C(=O)O)n1Cc1ccc(C(=O)O)cc1

>  <Name>  (342) 
Eprosartan

>  <Pocket>  (342) 
nan

>  <ATP_Site>  (342) 
nan

>  <Peripheral>  (342) 
nan

>  <Num_H_Atoms_ProtBoundConf>  (342) 
nan

>  <Num_Resolved_Atoms>  (342) 
nan

>  <Num_Not_Resolved_Atoms>  (342) 
nan

$$$$
CHEMBL3545376
     RDKit          3D

  0  0  0  0  0  0  0  0  0  0999 V3000
M  V30 BEGIN CTAB
M  V30 COUNTS 63 66 0 0 0
M  V30 BEGIN ATOM
M  V30 1 C 3.397342 -2.589395 2.713666 0
M  V30 2 O 3.908276 -1.266524 2.718938 0
M  V30 3 C 3.335958 -0.256872 1.971122 0
M  V30 4 C 3.905508 0.988783 2.044824 0
M  V30 5 C 3.358434 2.016407 1.310848 0
M  V30 6 O 3.976063 3.244652 1.426766 0
M  V30 7 C 5.092829 3.411529 2.249342 0
M  V30 8 C 2.242274 1.772288 0.512181 0
M  V30 9 C 1.625818 0.549182 0.396542 0
M  V30 10 N 0.541663 0.401612 -0.491069 0
M  V30 11 C 0.324642 1.556552 -1.358959 0
M  V30 12 C -0.621395 2.535570 -0.698241 0
M  V30 13 N -0.849204 3.714403 -1.500751 0
M  V30 14 C -1.581387 3.491448 -2.706674 0
M  V30 15 C -1.777640 4.815970 -3.446517 0
M  V30 16 C -2.960398 2.926847 -2.447391 0
M  V30 17 C -0.371715 -0.643871 -0.656319 0
M  V30 18 C -1.250679 -0.648820 -1.698522 0
M  V30 19 C -2.231236 -1.581460 -1.921624 0
M  V30 20 C -2.385171 -2.644629 -1.027337 0
M  V30 21 N -3.329961 -3.593762 -1.188212 0
M  V30 22 C -3.481423 -4.616339 -0.327353 0
M  V30 23 C -2.627329 -4.676766 0.753513 0
M  V30 24 C -2.727794 -5.752338 1.736622 0
M  V30 25 C -3.640416 -6.785916 1.700559 0
M  V30 26 N -3.383666 -7.537309 2.785858 0
M  V30 27 N -2.362816 -7.022221 3.487529 0
M  V30 28 C -1.757701 -7.502779 4.716633 0
M  V30 29 C -1.937350 -5.912602 2.856569 0
M  V30 30 N -1.684917 -3.728272 0.911760 0
M  V30 31 C -1.532135 -2.705455 0.052228 0
M  V30 32 C -0.589093 -1.713398 0.171519 0
M  V30 33 C 2.247929 -0.403010 1.164548 0
M  V30 34 H 2.420515 -2.631002 3.234967 0
M  V30 35 H 3.228090 -2.913190 1.666591 0
M  V30 36 H 4.089042 -3.274597 3.245826 0
M  V30 37 H 4.776820 1.142050 2.679221 0
M  V30 38 H 5.475958 4.451474 2.235556 0
M  V30 39 H 5.940016 2.728447 1.974083 0
M  V30 40 H 4.793433 3.105699 3.291457 0
M  V30 41 H 1.997603 2.693955 0.041256 0
M  V30 42 H -0.106075 1.286933 -2.319378 0
M  V30 43 H 1.324084 2.017340 -1.563413 0
M  V30 44 H -0.221534 2.834190 0.273072 0
M  V30 45 H -1.595961 2.024507 -0.456650 0
M  V30 46 H -1.222264 4.505565 -0.941445 0
M  V30 47 H -1.022668 2.834815 -3.390618 0
M  V30 48 H -2.616227 4.650902 -4.144442 0
M  V30 49 H -0.856614 5.074411 -3.967734 0
M  V30 50 H -2.084628 5.616615 -2.714257 0
M  V30 51 H -3.449393 3.404738 -1.580550 0
M  V30 52 H -2.892446 1.840942 -2.237095 0
M  V30 53 H -3.632650 3.046793 -3.313570 0
M  V30 54 H -1.328217 0.051164 -2.502572 0
M  V30 55 H -2.939290 -1.617501 -2.729806 0
M  V30 56 H -4.244922 -5.375337 -0.465495 0
M  V30 57 H -4.406776 -6.967406 0.961722 0
M  V30 58 H -0.728767 -7.864482 4.513903 0
M  V30 59 H -1.635852 -6.632243 5.425060 0
M  V30 60 H -2.363413 -8.285900 5.213371 0
M  V30 61 H -1.128410 -5.245170 3.145717 0
M  V30 62 H -0.030552 -1.861371 1.073945 0
M  V30 63 H 1.932324 -1.418413 1.158976 0
M  V30 END ATOM
M  V30 BEGIN BOND
M  V30 1 1 1 2
M  V30 2 1 2 3
M  V30 3 2 3 4
M  V30 4 1 4 5
M  V30 5 1 5 6
M  V30 6 1 6 7
M  V30 7 2 5 8
M  V30 8 1 8 9
M  V30 9 1 9 10
M  V30 10 1 10 11
M  V30 11 1 11 12
M  V30 12 1 12 13
M  V30 13 1 13 14
M  V30 14 1 14 15
M  V30 15 1 14 16
M  V30 16 1 10 17
M  V30 17 2 17 18
M  V30 18 1 18 19
M  V30 19 2 19 20
M  V30 20 1 20 21
M  V30 21 2 21 22
M  V30 22 1 22 23
M  V30 23 1 23 24
M  V30 24 1 24 25
M  V30 25 2 25 26
M  V30 26 1 26 27
M  V30 27 1 27 28
M  V30 28 1 27 29
M  V30 29 2 23 30
M  V30 30 1 30 31
M  V30 31 2 31 32
M  V30 32 2 9 33
M  V30 33 1 33 3
M  V30 34 1 32 17
M  V30 35 1 31 20
M  V30 36 2 29 24
M  V30 37 1 1 34
M  V30 38 1 1 35
M  V30 39 1 1 36
M  V30 40 1 4 37
M  V30 41 1 7 38
M  V30 42 1 7 39
M  V30 43 1 7 40
M  V30 44 1 8 41
M  V30 45 1 11 42
M  V30 46 1 11 43
M  V30 47 1 12 44
M  V30 48 1 12 45
M  V30 49 1 13 46
M  V30 50 1 14 47
M  V30 51 1 15 48
M  V30 52 1 15 49
M  V30 53 1 15 50
M  V30 54 1 16 51
M  V30 55 1 16 52
M  V30 56 1 16 53
M  V30 57 1 18 54
M  V30 58 1 19 55
M  V30 59 1 22 56
M  V30 60 1 25 57
M  V30 61 1 28 58
M  V30 62 1 28 59
M  V30 63 1 28 60
M  V30 64 1 29 61
M  V30 65 1 32 62
M  V30 66 1 33 63
M  V30 END BOND
M  V30 END CTAB
M  END
>  <Dataset>  (343) 
OralDrugs

>  <Ligand_Instance>  (343) 
nan

>  <PDB_ID>  (343) 
nan

>  <Standardized_SMILES>  (343) 
COc1cc(OC)cc(N(CCNC(C)C)c2ccc3ncc(-c4cnn(C)c4)nc3c2)c1

>  <Name>  (343) 
Erdafitinib

>  <Pocket>  (343) 
nan

>  <ATP_Site>  (343) 
nan

>  <Peripheral>  (343) 
nan

>  <Num_H_Atoms_ProtBoundConf>  (343) 
nan

>  <Num_Resolved_Atoms>  (343) 
nan

>  <Num_Not_Resolved_Atoms>  (343) 
nan

$$$$
CHEMBL1536
     RDKit          3D

  0  0  0  0  0  0  0  0  0  0999 V3000
M  V30 BEGIN CTAB
M  V30 COUNTS 73 75 0 0 0
M  V30 BEGIN ATOM
M  V30 1 C 4.512947 -2.598498 1.484410 0
M  V30 2 C 4.883867 -2.171796 2.678685 0
M  V30 3 C 5.589042 -2.767396 3.876597 0
M  V30 4 C 6.833942 -1.926053 4.035794 0
M  V30 5 C 6.596768 -0.485816 4.300699 0 CFG=2
M  V30 6 O 6.695074 -0.256716 5.684786 0
M  V30 7 C 5.391944 0.135296 3.703960 0
M  V30 8 C 4.545015 -0.770575 2.895992 0
M  V30 9 C 3.433343 -0.213824 2.383717 0
M  V30 10 C 2.496593 -0.981400 1.581373 0
M  V30 11 C 1.407956 -0.359551 1.084712 0
M  V30 12 C 1.240888 1.094422 1.398669 0
M  V30 13 C 0.112048 1.770498 0.763497 0
M  V30 14 C -0.956499 0.948851 0.119492 0
M  V30 15 C -0.305042 -0.085555 -0.728257 0 CFG=2
M  V30 16 C 0.759955 0.498098 -1.619203 0
M  V30 17 C -1.147342 -1.111337 -1.361923 0 CFG=1
M  V30 18 C -2.149581 -0.785591 -2.353355 0 CFG=2
M  V30 19 C -1.720949 -0.094681 -3.612114 0
M  V30 20 C -3.328909 -0.123338 -1.754523 0
M  V30 21 C -4.494792 -0.787298 -1.559025 0
M  V30 22 C -5.787900 -0.341428 -0.986426 0 CFG=2
M  V30 23 C -6.079311 -1.137931 0.268562 0
M  V30 24 C -6.943652 -0.457292 -1.929641 0
M  V30 25 C -6.623899 0.412497 -3.141636 0
M  V30 26 C -7.173840 -1.891369 -2.270898 0
M  V30 27 C -0.111576 -2.140441 -1.770844 0
M  V30 28 C 0.921106 -2.068797 -0.665624 0
M  V30 29 C 0.378077 -1.011230 0.258338 0 CFG=1
M  V30 30 H 4.988042 -3.453806 1.945175 0
M  V30 31 H 4.859239 -3.642835 1.501251 0
M  V30 32 H 5.925366 -3.772820 3.524341 0
M  V30 33 H 4.947130 -2.808750 4.754410 0
M  V30 34 H 7.419690 -2.051202 3.085668 0
M  V30 35 H 7.446290 -2.416182 4.819245 0
M  V30 36 H 7.488258 0.064595 3.869320 0
M  V30 37 H 6.309687 -1.048111 6.130029 0
M  V30 38 H 5.612434 1.067243 3.132605 0
M  V30 39 H 4.730721 0.494279 4.548412 0
M  V30 40 H 3.225849 0.827740 2.571926 0
M  V30 41 H 2.367450 -1.991520 1.224213 0
M  V30 42 H 2.194810 1.587288 1.034160 0
M  V30 43 H 1.238734 1.285989 2.497474 0
M  V30 44 H 0.453193 2.504402 -0.021519 0
M  V30 45 H -0.424202 2.438895 1.504531 0
M  V30 46 H -1.594109 0.459420 0.880314 0
M  V30 47 H -1.577725 1.668043 -0.473094 0
M  V30 48 H 1.712310 0.510539 -1.051102 0
M  V30 49 H 0.560665 1.575282 -1.853803 0
M  V30 50 H 0.910793 -0.104144 -2.510809 0
M  V30 51 H -1.693252 -1.626730 -0.505711 0
M  V30 52 H -2.559384 -1.791885 -2.726379 0
M  V30 53 H -1.025044 -0.668866 -4.223038 0
M  V30 54 H -2.647529 0.020787 -4.244379 0
M  V30 55 H -1.405542 0.936951 -3.380272 0
M  V30 56 H -3.565877 0.870786 -1.383195 0
M  V30 57 H -4.582232 -1.848565 -1.846766 0
M  V30 58 H -5.648221 0.719872 -0.624482 0
M  V30 59 H -5.143886 -1.637088 0.612533 0
M  V30 60 H -6.845261 -1.900051 0.074191 0
M  V30 61 H -6.380179 -0.476068 1.133671 0
M  V30 62 H -7.854753 -0.014623 -1.439155 0
M  V30 63 H -6.430112 -0.326443 -3.970090 0
M  V30 64 H -5.673303 0.962054 -3.015308 0
M  V30 65 H -7.469079 1.066836 -3.382533 0
M  V30 66 H -6.460811 -2.588727 -1.801188 0
M  V30 67 H -7.040604 -1.977593 -3.377217 0
M  V30 68 H -8.200233 -2.176556 -1.959642 0
M  V30 69 H -0.617169 -3.149741 -1.769710 0
M  V30 70 H 0.280063 -2.020189 -2.777929 0
M  V30 71 H 1.931713 -1.834132 -1.041996 0
M  V30 72 H 0.932912 -3.028326 -0.104641 0
M  V30 73 H -0.431378 -1.503421 0.837805 0
M  V30 END ATOM
M  V30 BEGIN BOND
M  V30 1 2 1 2
M  V30 2 1 2 3
M  V30 3 1 3 4
M  V30 4 1 4 5
M  V30 5 1 5 6
M  V30 6 1 5 7
M  V30 7 1 7 8
M  V30 8 2 8 9
M  V30 9 1 9 10
M  V30 10 2 10 11
M  V30 11 1 11 12
M  V30 12 1 12 13
M  V30 13 1 13 14
M  V30 14 1 14 15
M  V30 15 1 15 16 CFG=3
M  V30 16 1 15 17
M  V30 17 1 17 18
M  V30 18 1 18 19
M  V30 19 1 18 20
M  V30 20 2 20 21
M  V30 21 1 21 22
M  V30 22 1 22 23
M  V30 23 1 22 24
M  V30 24 1 24 25
M  V30 25 1 24 26
M  V30 26 1 17 27
M  V30 27 1 27 28
M  V30 28 1 28 29
M  V30 29 1 8 2
M  V30 30 1 29 11
M  V30 31 1 29 15
M  V30 32 1 1 30
M  V30 33 1 1 31
M  V30 34 1 3 32
M  V30 35 1 3 33
M  V30 36 1 4 34
M  V30 37 1 4 35
M  V30 38 1 5 36 CFG=3
M  V30 39 1 6 37
M  V30 40 1 7 38
M  V30 41 1 7 39
M  V30 42 1 9 40
M  V30 43 1 10 41
M  V30 44 1 12 42
M  V30 45 1 12 43
M  V30 46 1 13 44
M  V30 47 1 13 45
M  V30 48 1 14 46
M  V30 49 1 14 47
M  V30 50 1 16 48
M  V30 51 1 16 49
M  V30 52 1 16 50
M  V30 53 1 17 51 CFG=1
M  V30 54 1 18 52 CFG=3
M  V30 55 1 19 53
M  V30 56 1 19 54
M  V30 57 1 19 55
M  V30 58 1 20 56
M  V30 59 1 21 57
M  V30 60 1 22 58 CFG=1
M  V30 61 1 23 59
M  V30 62 1 23 60
M  V30 63 1 23 61
M  V30 64 1 24 62
M  V30 65 1 25 63
M  V30 66 1 25 64
M  V30 67 1 25 65
M  V30 68 1 26 66
M  V30 69 1 26 67
M  V30 70 1 26 68
M  V30 71 1 27 69
M  V30 72 1 27 70
M  V30 73 1 28 71
M  V30 74 1 28 72
M  V30 75 1 29 73 CFG=1
M  V30 END BOND
M  V30 END CTAB
M  END
>  <Dataset>  (344) 
OralDrugs

>  <Ligand_Instance>  (344) 
nan

>  <PDB_ID>  (344) 
nan

>  <Standardized_SMILES>  (344) 
C=C1CC[C@H](O)C/C1=C/C=C1\CCC[C@]2(C)[C@@H]([C@H](C)/C=C/[C@H](C)C(C)C)CC[C@@H]12

>  <Name>  (344) 
Ergocalciferol

>  <Pocket>  (344) 
nan

>  <ATP_Site>  (344) 
nan

>  <Peripheral>  (344) 
nan

>  <Num_H_Atoms_ProtBoundConf>  (344) 
nan

>  <Num_Resolved_Atoms>  (344) 
nan

>  <Num_Not_Resolved_Atoms>  (344) 
nan

$$$$
CHEMBL442
     RDKit          3D

  0  0  0  0  0  0  0  0  0  0999 V3000
M  V30 BEGIN CTAB
M  V30 COUNTS 78 85 0 0 0
M  V30 BEGIN ATOM
M  V30 1 C -0.290258 -4.752327 0.765682 0
M  V30 2 N 0.262343 -4.748522 -0.559610 0
M  V30 3 C -0.288107 -3.717488 -1.402556 0
M  V30 4 C 0.099735 -2.385004 -0.865965 0 CFG=2
M  V30 5 C -0.430479 -1.249829 -1.655017 0
M  V30 6 O -1.127851 -1.549273 -2.659234 0
M  V30 7 N -0.119536 0.066481 -1.229531 0
M  V30 8 C -0.619848 1.184239 -1.975401 0 CFG=2
M  V30 9 C -0.092851 1.106546 -3.390639 0
M  V30 10 O -0.175232 2.362232 -1.374507 0
M  V30 11 C -1.033235 2.588602 -0.325077 0 CFG=1
M  V30 12 O -0.732597 1.827512 0.798035 0
M  V30 13 C -1.026068 4.052432 0.105065 0 CFG=2
M  V30 14 C 0.234045 4.374690 0.822075 0
M  V30 15 C -0.154028 4.789937 2.219580 0
M  V30 16 C -1.641598 4.877382 2.260889 0
M  V30 17 N -2.116685 4.180261 1.080276 0
M  V30 18 C -3.388244 3.629319 0.724523 0
M  V30 19 O -4.353952 4.047474 1.407643 0
M  V30 20 C -3.629610 2.650183 -0.339638 0 CFG=2
M  V30 21 C -4.546588 1.532062 -0.005600 0
M  V30 22 C -4.149833 0.672275 1.105507 0
M  V30 23 C -4.482934 0.863653 2.430771 0
M  V30 24 C -4.073644 0.008501 3.439669 0
M  V30 25 C -3.289915 -1.101022 3.125759 0
M  V30 26 C -2.955743 -1.294104 1.800906 0
M  V30 27 C -3.369971 -0.437014 0.815469 0
M  V30 28 N -2.341280 2.224563 -0.834360 0
M  V30 29 C -2.083473 1.354455 -1.930973 0
M  V30 30 O -2.942210 0.827948 -2.716683 0
M  V30 31 C 1.582780 -2.353934 -0.772433 0
M  V30 32 C 2.315353 -3.447159 -0.649626 0
M  V30 33 C 3.771088 -3.365433 -0.561321 0
M  V30 34 C 4.437794 -2.281162 -1.090371 0
M  V30 35 C 5.829075 -2.330081 -0.932800 0
M  V30 36 C 6.469152 -3.394462 -0.291837 0
M  V30 37 C 5.769129 -4.464939 0.226364 0
M  V30 38 N 5.991416 -5.625456 0.879932 0
M  V30 39 C 4.795041 -6.248303 1.106986 0
M  V30 40 C 3.739466 -5.508784 0.604582 0
M  V30 41 C 4.397523 -4.420588 0.073223 0
M  V30 42 C 2.271669 -5.627616 0.531164 0
M  V30 43 C 1.694801 -4.812921 -0.591767 0 CFG=1
M  V30 44 H 0.120750 -3.969749 1.420020 0
M  V30 45 H -0.271491 -5.769950 1.181661 0
M  V30 46 H -1.381900 -4.495107 0.658090 0
M  V30 47 H -1.388468 -3.861791 -1.402666 0
M  V30 48 H 0.124346 -3.835688 -2.416130 0
M  V30 49 H -0.270457 -2.324379 0.192104 0
M  V30 50 H 0.476269 0.195786 -0.368971 0
M  V30 51 H 0.977828 0.820803 -3.299822 0
M  V30 52 H -0.675945 0.348797 -3.948581 0
M  V30 53 H -0.146083 2.089158 -3.899654 0
M  V30 54 H -1.500956 1.816926 1.417866 0
M  V30 55 H -1.181253 4.726490 -0.753858 0
M  V30 56 H 0.749147 5.255682 0.347851 0
M  V30 57 H 0.960662 3.540528 0.788046 0
M  V30 58 H 0.268967 5.775031 2.502173 0
M  V30 59 H 0.278911 4.046131 2.918765 0
M  V30 60 H -2.000641 4.426174 3.209055 0
M  V30 61 H -2.005447 5.943482 2.265370 0
M  V30 62 H -4.114919 3.217472 -1.172838 0
M  V30 63 H -4.741886 0.979341 -0.949436 0
M  V30 64 H -5.537479 1.997994 0.246627 0
M  V30 65 H -5.091113 1.723401 2.679050 0
M  V30 66 H -4.344090 0.172224 4.480017 0
M  V30 67 H -2.985624 -1.751121 3.936344 0
M  V30 68 H -2.343136 -2.181985 1.643033 0
M  V30 69 H -3.016017 -0.742379 -0.159286 0
M  V30 70 H 2.061616 -1.388803 -0.805543 0
M  V30 71 H 3.901819 -1.504786 -1.566786 0
M  V30 72 H 6.411387 -1.510643 -1.325123 0
M  V30 73 H 7.538210 -3.429071 -0.172375 0
M  V30 74 H 6.953635 -5.931778 1.137364 0
M  V30 75 H 4.678442 -7.214475 1.622727 0
M  V30 76 H 2.073985 -6.715316 0.316304 0
M  V30 77 H 1.766705 -5.393073 1.472248 0
M  V30 78 H 1.984440 -5.311118 -1.540884 0
M  V30 END ATOM
M  V30 BEGIN BOND
M  V30 1 1 1 2
M  V30 2 1 2 3
M  V30 3 1 3 4
M  V30 4 1 4 5
M  V30 5 2 5 6
M  V30 6 1 5 7
M  V30 7 1 8 7 CFG=1
M  V30 8 1 8 9
M  V30 9 1 8 10
M  V30 10 1 10 11
M  V30 11 1 11 12 CFG=1
M  V30 12 1 11 13
M  V30 13 1 13 14
M  V30 14 1 14 15
M  V30 15 1 15 16
M  V30 16 1 16 17
M  V30 17 1 17 18
M  V30 18 2 18 19
M  V30 19 1 18 20
M  V30 20 1 20 21
M  V30 21 1 21 22
M  V30 22 2 22 23
M  V30 23 1 23 24
M  V30 24 2 24 25
M  V30 25 1 25 26
M  V30 26 2 26 27
M  V30 27 1 20 28
M  V30 28 1 28 29
M  V30 29 2 29 30
M  V30 30 1 4 31
M  V30 31 2 31 32
M  V30 32 1 32 33
M  V30 33 2 33 34
M  V30 34 1 34 35
M  V30 35 2 35 36
M  V30 36 1 36 37
M  V30 37 1 37 38
M  V30 38 1 38 39
M  V30 39 2 39 40
M  V30 40 1 40 41
M  V30 41 1 40 42
M  V30 42 1 42 43
M  V30 43 1 43 2
M  V30 44 1 29 8
M  V30 45 1 43 32
M  V30 46 1 28 11
M  V30 47 1 41 33
M  V30 48 1 17 13
M  V30 49 1 27 22
M  V30 50 2 41 37
M  V30 51 1 1 44
M  V30 52 1 1 45
M  V30 53 1 1 46
M  V30 54 1 3 47
M  V30 55 1 3 48
M  V30 56 1 4 49 CFG=1
M  V30 57 1 7 50
M  V30 58 1 9 51
M  V30 59 1 9 52
M  V30 60 1 9 53
M  V30 61 1 12 54
M  V30 62 1 13 55 CFG=3
M  V30 63 1 14 56
M  V30 64 1 14 57
M  V30 65 1 15 58
M  V30 66 1 15 59
M  V30 67 1 16 60
M  V30 68 1 16 61
M  V30 69 1 20 62 CFG=3
M  V30 70 1 21 63
M  V30 71 1 21 64
M  V30 72 1 23 65
M  V30 73 1 24 66
M  V30 74 1 25 67
M  V30 75 1 26 68
M  V30 76 1 27 69
M  V30 77 1 31 70
M  V30 78 1 34 71
M  V30 79 1 35 72
M  V30 80 1 36 73
M  V30 81 1 38 74
M  V30 82 1 39 75
M  V30 83 1 42 76
M  V30 84 1 42 77
M  V30 85 1 43 78 CFG=3
M  V30 END BOND
M  V30 END CTAB
M  END
>  <Dataset>  (345) 
OralDrugs

>  <Ligand_Instance>  (345) 
nan

>  <PDB_ID>  (345) 
nan

>  <Standardized_SMILES>  (345) 
CN1C[C@H](C(=O)N[C@]2(C)O[C@@]3(O)[C@@H]4CCCN4C(=O)[C@H](Cc4ccccc4)N3C2=O)C=C2c3cccc4[nH]cc(c34)C[C@H]21

>  <Name>  (345) 
Ergotamine

>  <Pocket>  (345) 
nan

>  <ATP_Site>  (345) 
nan

>  <Peripheral>  (345) 
nan

>  <Num_H_Atoms_ProtBoundConf>  (345) 
nan

>  <Num_Resolved_Atoms>  (345) 
nan

>  <Num_Not_Resolved_Atoms>  (345) 
nan

$$$$
CHEMBL553
     RDKit          3D

  0  0  0  0  0  0  0  0  0  0999 V3000
M  V30 BEGIN CTAB
M  V30 COUNTS 52 54 0 0 0
M  V30 BEGIN ATOM
M  V30 1 C 2.250867 -5.200965 -1.641162 0
M  V30 2 C 1.876404 -4.218975 -2.199057 0
M  V30 3 C 1.403869 -3.033563 -2.858733 0
M  V30 4 C 0.728686 -3.044969 -4.060850 0
M  V30 5 C 0.285317 -1.868544 -4.669046 0
M  V30 6 C 0.515098 -0.645116 -4.073318 0
M  V30 7 C 1.192826 -0.645423 -2.868542 0
M  V30 8 N 1.468132 0.566712 -2.190559 0
M  V30 9 C 2.158937 0.781092 -0.954858 0
M  V30 10 N 3.487013 0.996406 -0.894535 0
M  V30 11 C 4.103575 1.194651 0.301839 0
M  V30 12 N 3.400502 1.180190 1.452935 0
M  V30 13 C 2.072308 0.962893 1.369374 0
M  V30 14 C 1.391058 0.954825 2.565298 0
M  V30 15 C 0.033619 0.747589 2.669689 0
M  V30 16 O -0.809593 0.702161 3.740779 0
M  V30 17 C -0.587976 0.841074 5.088973 0
M  V30 18 C 0.319533 -0.137104 5.749131 0
M  V30 19 O -0.122365 -1.457428 5.639304 0
M  V30 20 C 0.823024 -2.242292 6.300279 0
M  V30 21 C -0.634879 0.539957 1.456757 0
M  V30 22 O -2.004618 0.315500 1.373538 0
M  V30 23 C -2.631472 0.111914 0.122961 0
M  V30 24 C -4.091923 -0.098757 0.385291 0
M  V30 25 O -4.861157 -0.312826 -0.721421 0
M  V30 26 C -4.544863 -1.401466 -1.486806 0
M  V30 27 C 0.029087 0.544329 0.247582 0
M  V30 28 C 1.391079 0.755835 0.189988 0
M  V30 29 C 1.625936 -1.811793 -2.277057 0
M  V30 30 H 2.585420 -6.079477 -1.150117 0
M  V30 31 H 0.535490 -3.992420 -4.549170 0
M  V30 32 H -0.249001 -1.895788 -5.623283 0
M  V30 33 H 0.206545 0.302725 -4.476734 0
M  V30 34 H 1.171711 1.493515 -2.553414 0
M  V30 35 H 5.172560 1.370352 0.377895 0
M  V30 36 H 1.879860 1.115997 3.494464 0
M  V30 37 H -1.594216 0.742810 5.597776 0
M  V30 38 H -0.250312 1.861626 5.382089 0
M  V30 39 H 0.257421 0.080783 6.856532 0
M  V30 40 H 1.365386 -0.024955 5.482396 0
M  V30 41 H 0.485534 -3.291773 6.221565 0
M  V30 42 H 1.837989 -2.171393 5.876954 0
M  V30 43 H 0.847744 -2.013807 7.391322 0
M  V30 44 H -2.128243 -0.736371 -0.345118 0
M  V30 45 H -2.505982 1.055403 -0.474973 0
M  V30 46 H -4.488742 0.766279 0.928648 0
M  V30 47 H -4.161958 -0.990715 1.060024 0
M  V30 48 H -5.282374 -1.406357 -2.340232 0
M  V30 49 H -4.733667 -2.365645 -0.938542 0
M  V30 50 H -3.561211 -1.406072 -1.961076 0
M  V30 51 H -0.450664 0.388613 -0.704013 0
M  V30 52 H 2.157024 -1.775778 -1.327079 0
M  V30 END ATOM
M  V30 BEGIN BOND
M  V30 1 3 1 2
M  V30 2 1 2 3
M  V30 3 2 3 4
M  V30 4 1 4 5
M  V30 5 2 5 6
M  V30 6 1 6 7
M  V30 7 1 7 8
M  V30 8 1 8 9
M  V30 9 2 9 10
M  V30 10 1 10 11
M  V30 11 2 11 12
M  V30 12 1 12 13
M  V30 13 2 13 14
M  V30 14 1 14 15
M  V30 15 1 15 16
M  V30 16 1 16 17
M  V30 17 1 17 18
M  V30 18 1 18 19
M  V30 19 1 19 20
M  V30 20 2 15 21
M  V30 21 1 21 22
M  V30 22 1 22 23
M  V30 23 1 23 24
M  V30 24 1 24 25
M  V30 25 1 25 26
M  V30 26 1 21 27
M  V30 27 2 27 28
M  V30 28 2 7 29
M  V30 29 1 29 3
M  V30 30 1 28 9
M  V30 31 1 28 13
M  V30 32 1 1 30
M  V30 33 1 4 31
M  V30 34 1 5 32
M  V30 35 1 6 33
M  V30 36 1 8 34
M  V30 37 1 11 35
M  V30 38 1 14 36
M  V30 39 1 17 37
M  V30 40 1 17 38
M  V30 41 1 18 39
M  V30 42 1 18 40
M  V30 43 1 20 41
M  V30 44 1 20 42
M  V30 45 1 20 43
M  V30 46 1 23 44
M  V30 47 1 23 45
M  V30 48 1 24 46
M  V30 49 1 24 47
M  V30 50 1 26 48
M  V30 51 1 26 49
M  V30 52 1 26 50
M  V30 53 1 27 51
M  V30 54 1 29 52
M  V30 END BOND
M  V30 END CTAB
M  END
>  <Dataset>  (346) 
OralDrugs

>  <Ligand_Instance>  (346) 
nan

>  <PDB_ID>  (346) 
nan

>  <Standardized_SMILES>  (346) 
C#Cc1cccc(Nc2ncnc3cc(OCCOC)c(OCCOC)cc23)c1

>  <Name>  (346) 
Erlotinib

>  <Pocket>  (346) 
nan

>  <ATP_Site>  (346) 
nan

>  <Peripheral>  (346) 
nan

>  <Num_H_Atoms_ProtBoundConf>  (346) 
nan

>  <Num_Resolved_Atoms>  (346) 
nan

>  <Num_Not_Resolved_Atoms>  (346) 
nan

$$$$
CHEMBL1770248
     RDKit          3D

  0  0  0  0  0  0  0  0  0  0999 V3000
M  V30 BEGIN CTAB
M  V30 COUNTS 55 58 0 0 0
M  V30 BEGIN ATOM
M  V30 1 C 1.641329 2.163541 6.991700 0
M  V30 2 C 3.088349 1.817188 6.683878 0
M  V30 3 O 3.247921 1.498219 5.321043 0
M  V30 4 C 2.560036 0.424729 4.796091 0
M  V30 5 C 1.701830 -0.431690 5.440576 0
M  V30 6 C 1.072566 -1.466696 4.809843 0
M  V30 7 C 1.249065 -1.734761 3.474867 0
M  V30 8 C 0.695469 -2.757888 2.588095 0
M  V30 9 C -0.499398 -2.339788 1.820773 0
M  V30 10 C -0.294448 -1.970456 0.497272 0
M  V30 11 C -1.287308 -1.540470 -0.352708 0
M  V30 12 C -0.973289 -1.159276 -1.765945 0 CFG=2
M  V30 13 O 0.295573 -0.622428 -1.884765 0
M  V30 14 C 0.213466 0.058995 -3.098447 0
M  V30 15 C -1.253478 0.260119 -3.341106 0 CFG=2
M  V30 16 C -1.579230 1.694170 -3.686667 0
M  V30 17 O -1.015596 2.001464 -4.930604 0
M  V30 18 O -1.793692 -0.106031 -2.103369 0
M  V30 19 C -1.827524 -0.687373 -4.349775 0 CFG=1
M  V30 20 O -1.666862 -0.254740 -5.656461 0
M  V30 21 C -1.183865 -2.037656 -4.112900 0 CFG=2
M  V30 22 O -2.057924 -2.987027 -4.694923 0
M  V30 23 C -1.098925 -2.352921 -2.653243 0 CFG=1
M  V30 24 O 0.000510 -3.178838 -2.443225 0
M  V30 25 C -2.582592 -1.457899 0.101779 0
M  V30 26 C -2.826310 -1.814664 1.403847 0
M  V30 27 C -1.810102 -2.240682 2.228596 0
M  V30 28 Cl -2.138041 -2.703367 3.883435 0
M  V30 29 C 2.120517 -0.876776 2.791346 0
M  V30 30 C 2.767798 0.186848 3.435369 0
M  V30 31 H 0.964074 2.021232 6.122594 0
M  V30 32 H 1.312201 1.643696 7.913556 0
M  V30 33 H 1.579452 3.253121 7.242387 0
M  V30 34 H 3.357226 0.929698 7.311204 0
M  V30 35 H 3.733313 2.690210 6.978090 0
M  V30 36 H 1.539287 -0.258517 6.488220 0
M  V30 37 H 0.399818 -2.153981 5.297197 0
M  V30 38 H 0.411283 -3.653703 3.211273 0
M  V30 39 H 1.447966 -3.169021 1.874113 0
M  V30 40 H 0.714137 -2.008629 0.056895 0
M  V30 41 H 0.725216 1.049440 -3.073538 0
M  V30 42 H 0.733424 -0.511831 -3.893248 0
M  V30 43 H -1.257975 2.395991 -2.920414 0
M  V30 44 H -2.691869 1.749044 -3.822653 0
M  V30 45 H -1.107731 3.000170 -5.043753 0
M  V30 46 H -2.909111 -0.801701 -4.127134 0
M  V30 47 H -2.294342 -0.723944 -6.261609 0
M  V30 48 H -0.224595 -2.147684 -4.658813 0
M  V30 49 H -1.990480 -3.864262 -4.220762 0
M  V30 50 H -1.988530 -2.923071 -2.302282 0
M  V30 51 H 0.155380 -3.823521 -3.153622 0
M  V30 52 H -3.404313 -1.128560 -0.514935 0
M  V30 53 H -3.830868 -1.767741 1.811522 0
M  V30 54 H 2.363856 -0.957586 1.730703 0
M  V30 55 H 3.442422 0.836368 2.867888 0
M  V30 END ATOM
M  V30 BEGIN BOND
M  V30 1 1 1 2
M  V30 2 1 2 3
M  V30 3 1 3 4
M  V30 4 2 4 5
M  V30 5 1 5 6
M  V30 6 2 6 7
M  V30 7 1 7 8
M  V30 8 1 8 9
M  V30 9 2 9 10
M  V30 10 1 10 11
M  V30 11 1 12 11 CFG=1
M  V30 12 1 12 13
M  V30 13 1 13 14
M  V30 14 1 14 15
M  V30 15 1 15 16 CFG=3
M  V30 16 1 16 17
M  V30 17 1 15 18
M  V30 18 1 15 19
M  V30 19 1 19 20
M  V30 20 1 19 21
M  V30 21 1 21 22
M  V30 22 1 21 23
M  V30 23 1 23 24
M  V30 24 2 11 25
M  V30 25 1 25 26
M  V30 26 2 26 27
M  V30 27 1 27 28
M  V30 28 1 7 29
M  V30 29 2 29 30
M  V30 30 1 30 4
M  V30 31 1 27 9
M  V30 32 1 18 12
M  V30 33 1 23 12
M  V30 34 1 1 31
M  V30 35 1 1 32
M  V30 36 1 1 33
M  V30 37 1 2 34
M  V30 38 1 2 35
M  V30 39 1 5 36
M  V30 40 1 6 37
M  V30 41 1 8 38
M  V30 42 1 8 39
M  V30 43 1 10 40
M  V30 44 1 14 41
M  V30 45 1 14 42
M  V30 46 1 16 43
M  V30 47 1 16 44
M  V30 48 1 17 45
M  V30 49 1 19 46 CFG=1
M  V30 50 1 20 47
M  V30 51 1 21 48 CFG=3
M  V30 52 1 22 49
M  V30 53 1 23 50 CFG=1
M  V30 54 1 24 51
M  V30 55 1 25 52
M  V30 56 1 26 53
M  V30 57 1 29 54
M  V30 58 1 30 55
M  V30 END BOND
M  V30 END CTAB
M  END
>  <Dataset>  (347) 
OralDrugs

>  <Ligand_Instance>  (347) 
nan

>  <PDB_ID>  (347) 
nan

>  <Standardized_SMILES>  (347) 
CCOc1ccc(Cc2cc([C@]34OC[C@](CO)(O3)[C@@H](O)[C@H](O)[C@H]4O)ccc2Cl)cc1

>  <Name>  (347) 
Ertugliflozin

>  <Pocket>  (347) 
nan

>  <ATP_Site>  (347) 
nan

>  <Peripheral>  (347) 
nan

>  <Num_H_Atoms_ProtBoundConf>  (347) 
nan

>  <Num_Resolved_Atoms>  (347) 
nan

>  <Num_Not_Resolved_Atoms>  (347) 
nan

$$$$
CHEMBL532
     RDKit          3D

  0  0  0  0  0  0  0  0  0  0999 V3000
M  V30 BEGIN CTAB
M  V30 COUNTS 118 120 0 0 0
M  V30 BEGIN ATOM
M  V30 1 C 0.782645 -3.387838 4.448064 0
M  V30 2 C 1.518647 -2.135603 4.687325 0
M  V30 3 C 0.893111 -0.859545 4.103281 0 CFG=1
M  V30 4 O 0.797911 -1.041266 2.750785 0
M  V30 5 C 1.469106 -0.672001 1.654577 0
M  V30 6 O 2.308334 -0.055365 2.337730 0
M  V30 7 C 0.949865 -1.117936 0.297527 0 CFG=2
M  V30 8 C 2.042936 -2.135325 -0.112838 0
M  V30 9 C 0.832091 0.033344 -0.642767 0 CFG=1
M  V30 10 O 2.060863 0.446962 -1.130396 0
M  V30 11 C 2.676249 1.550434 -0.675811 0 CFG=1
M  V30 12 C 4.034480 1.250509 -0.003988 0
M  V30 13 C 5.163661 2.063755 -0.639910 0 CFG=1
M  V30 14 C 4.707267 3.537271 -0.570589 0
M  V30 15 O 6.281777 1.978979 0.121309 0
M  V30 16 C 6.802983 0.751153 0.388752 0
M  V30 17 C 5.271516 1.740869 -2.087370 0 CFG=1
M  V30 18 O 6.073533 0.672513 -2.405646 0
M  V30 19 C 3.826136 1.508363 -2.567819 0 CFG=2
M  V30 20 C 3.666443 1.764546 -4.035919 0
M  V30 21 O 3.027236 2.343279 -1.764642 0
M  V30 22 C -0.348276 0.273905 -1.453352 0 CFG=2
M  V30 23 C -0.246203 1.601970 -2.238359 0
M  V30 24 C -1.713076 -0.127603 -1.245618 0 CFG=1
M  V30 25 O -1.941811 -1.470977 -1.544563 0
M  V30 26 C -2.782313 -1.657822 -2.614814 0 CFG=2
M  V30 27 O -3.965792 -2.334486 -2.327949 0
M  V30 28 C -4.902474 -1.838532 -3.266025 0 CFG=2
M  V30 29 C -6.304302 -2.250449 -2.979628 0
M  V30 30 C -4.442047 -2.156450 -4.655316 0
M  V30 31 C -3.185421 -3.007067 -4.677951 0 CFG=2
M  V30 32 N -3.469654 -4.353932 -4.265602 0
M  V30 33 C -4.464659 -4.965400 -5.168821 0
M  V30 34 C -2.343293 -5.223969 -4.213574 0
M  V30 35 C -2.143021 -2.395506 -3.757534 0 CFG=1
M  V30 36 O -1.391903 -1.437533 -4.459775 0
M  V30 37 C -2.521445 0.292511 -0.039702 0 CFG=2
M  V30 38 C -2.438210 -0.830005 0.974987 0
M  V30 39 O -3.910097 0.227377 -0.385931 0
M  V30 40 C -2.334675 1.647357 0.473563 0
M  V30 41 C -3.005687 1.990107 1.770842 0 CFG=1
M  V30 42 C -4.486752 1.831170 1.811751 0
M  V30 43 C -2.292946 1.558852 3.005543 0
M  V30 44 O -2.924232 0.669331 3.541593 0
M  V30 45 C -1.068292 1.863599 3.786946 0 CFG=2
M  V30 46 C 0.091653 2.386356 2.976467 0
M  V30 47 C -0.706942 0.998753 4.885602 0 CFG=1
M  V30 48 O -1.749111 1.071454 5.859872 0
M  V30 49 C -0.264075 -0.386348 4.883619 0 CFG=1
M  V30 50 C -1.403907 -1.399817 4.945545 0
M  V30 51 O 0.242450 -0.518892 6.258945 0
M  V30 52 H 1.519389 -4.142651 4.001979 0
M  V30 53 H 0.567236 -3.858151 5.446792 0
M  V30 54 H -0.057210 -3.375074 3.759396 0
M  V30 55 H 2.573469 -2.204206 4.278754 0
M  V30 56 H 1.681638 -1.905301 5.779662 0
M  V30 57 H 1.761220 -0.123882 4.357795 0
M  V30 58 H 0.111247 -1.769479 0.432996 0
M  V30 59 H 1.612196 -2.958351 -0.722126 0
M  V30 60 H 2.383395 -2.654902 0.806312 0
M  V30 61 H 2.907510 -1.656951 -0.560272 0
M  V30 62 H 0.735651 0.920734 0.132767 0
M  V30 63 H 2.139731 2.152834 0.059583 0
M  V30 64 H 4.332378 0.201249 -0.149226 0
M  V30 65 H 4.062090 1.587846 1.050826 0
M  V30 66 H 5.468203 4.157104 -0.013314 0
M  V30 67 H 3.780010 3.668466 -0.018199 0
M  V30 68 H 4.634712 4.002204 -1.553493 0
M  V30 69 H 7.112757 0.139466 -0.447393 0
M  V30 70 H 7.738262 0.920860 1.002652 0
M  V30 71 H 6.124206 0.229546 1.102023 0
M  V30 72 H 5.584823 2.670483 -2.648729 0
M  V30 73 H 6.427889 0.801172 -3.313729 0
M  V30 74 H 3.648573 0.427646 -2.354255 0
M  V30 75 H 2.612034 1.918196 -4.261574 0
M  V30 76 H 4.343125 2.597975 -4.303918 0
M  V30 77 H 4.077405 0.871810 -4.584388 0
M  V30 78 H -0.075556 -0.426433 -2.364895 0
M  V30 79 H 0.716434 1.667046 -2.764918 0
M  V30 80 H -0.996148 1.560009 -3.090998 0
M  V30 81 H -0.370728 2.481360 -1.625461 0
M  V30 82 H -2.297809 0.413224 -2.065258 0
M  V30 83 H -3.084127 -0.630662 -2.982911 0
M  V30 84 H -4.860908 -0.715281 -3.151777 0
M  V30 85 H -6.705780 -2.898809 -3.793712 0
M  V30 86 H -6.424523 -2.833512 -2.047524 0
M  V30 87 H -7.008834 -1.397835 -2.907126 0
M  V30 88 H -4.200486 -1.222396 -5.242016 0
M  V30 89 H -5.264394 -2.652833 -5.195504 0
M  V30 90 H -2.795879 -2.936862 -5.708499 0
M  V30 91 H -4.200941 -4.674313 -6.187363 0
M  V30 92 H -5.499400 -4.687290 -4.883419 0
M  V30 93 H -4.371044 -6.060104 -5.052776 0
M  V30 94 H -1.992850 -5.250661 -3.141240 0
M  V30 95 H -2.640937 -6.241660 -4.544201 0
M  V30 96 H -1.475651 -4.939867 -4.808228 0
M  V30 97 H -1.482787 -3.180395 -3.413041 0
M  V30 98 H -0.850873 -1.929579 -5.118391 0
M  V30 99 H -3.384558 -1.032142 1.512199 0
M  V30 100 H -1.586578 -0.619647 1.596526 0
M  V30 101 H -2.239834 -1.816462 0.466021 0
M  V30 102 H -4.308204 -0.636838 -0.230578 0
M  V30 103 H -1.337211 2.061476 0.515574 0
M  V30 104 H -2.866981 2.317047 -0.281408 0
M  V30 105 H -2.895878 3.134638 1.774911 0
M  V30 106 H -4.883526 2.296788 2.748425 0
M  V30 107 H -4.859751 0.806551 1.833937 0
M  V30 108 H -4.916149 2.450714 1.004114 0
M  V30 109 H -1.404601 2.834320 4.320625 0
M  V30 110 H -0.066595 3.460263 2.654144 0
M  V30 111 H 0.373413 1.858097 2.106442 0
M  V30 112 H 0.936274 2.485561 3.721768 0
M  V30 113 H 0.118190 1.597999 5.438013 0
M  V30 114 H -1.826647 2.033965 6.079965 0
M  V30 115 H -2.247195 -0.944210 5.562392 0
M  V30 116 H -1.143198 -2.291085 5.561630 0
M  V30 117 H -1.750572 -1.750724 3.981254 0
M  V30 118 H -0.524601 -0.483979 6.867280 0
M  V30 END ATOM
M  V30 BEGIN BOND
M  V30 1 1 1 2
M  V30 2 1 2 3
M  V30 3 1 3 4
M  V30 4 1 4 5
M  V30 5 2 5 6
M  V30 6 1 5 7
M  V30 7 1 7 8
M  V30 8 1 7 9
M  V30 9 1 9 10
M  V30 10 1 10 11
M  V30 11 1 11 12
M  V30 12 1 12 13
M  V30 13 1 13 14
M  V30 14 1 13 15 CFG=1
M  V30 15 1 15 16
M  V30 16 1 13 17
M  V30 17 1 17 18
M  V30 18 1 17 19
M  V30 19 1 19 20
M  V30 20 1 19 21
M  V30 21 1 9 22
M  V30 22 1 22 23
M  V30 23 1 22 24
M  V30 24 1 24 25
M  V30 25 1 25 26
M  V30 26 1 26 27
M  V30 27 1 27 28
M  V30 28 1 28 29
M  V30 29 1 28 30
M  V30 30 1 30 31
M  V30 31 1 31 32
M  V30 32 1 32 33
M  V30 33 1 32 34
M  V30 34 1 31 35
M  V30 35 1 35 36
M  V30 36 1 24 37
M  V30 37 1 37 38
M  V30 38 1 37 39 CFG=3
M  V30 39 1 37 40
M  V30 40 1 40 41
M  V30 41 1 41 42
M  V30 42 1 41 43
M  V30 43 2 43 44
M  V30 44 1 43 45
M  V30 45 1 45 46
M  V30 46 1 45 47
M  V30 47 1 47 48
M  V30 48 1 47 49
M  V30 49 1 49 50
M  V30 50 1 49 51 CFG=1
M  V30 51 1 49 3
M  V30 52 1 21 11
M  V30 53 1 35 26
M  V30 54 1 1 52
M  V30 55 1 1 53
M  V30 56 1 1 54
M  V30 57 1 2 55
M  V30 58 1 2 56
M  V30 59 1 3 57 CFG=3
M  V30 60 1 7 58 CFG=1
M  V30 61 1 8 59
M  V30 62 1 8 60
M  V30 63 1 8 61
M  V30 64 1 9 62 CFG=1
M  V30 65 1 11 63 CFG=1
M  V30 66 1 12 64
M  V30 67 1 12 65
M  V30 68 1 14 66
M  V30 69 1 14 67
M  V30 70 1 14 68
M  V30 71 1 16 69
M  V30 72 1 16 70
M  V30 73 1 16 71
M  V30 74 1 17 72 CFG=3
M  V30 75 1 18 73
M  V30 76 1 19 74 CFG=3
M  V30 77 1 20 75
M  V30 78 1 20 76
M  V30 79 1 20 77
M  V30 80 1 22 78 CFG=3
M  V30 81 1 23 79
M  V30 82 1 23 80
M  V30 83 1 23 81
M  V30 84 1 24 82 CFG=3
M  V30 85 1 26 83 CFG=3
M  V30 86 1 28 84 CFG=3
M  V30 87 1 29 85
M  V30 88 1 29 86
M  V30 89 1 29 87
M  V30 90 1 30 88
M  V30 91 1 30 89
M  V30 92 1 31 90 CFG=3
M  V30 93 1 33 91
M  V30 94 1 33 92
M  V30 95 1 33 93
M  V30 96 1 34 94
M  V30 97 1 34 95
M  V30 98 1 34 96
M  V30 99 1 35 97 CFG=1
M  V30 100 1 36 98
M  V30 101 1 38 99
M  V30 102 1 38 100
M  V30 103 1 38 101
M  V30 104 1 39 102
M  V30 105 1 40 103
M  V30 106 1 40 104
M  V30 107 1 41 105 CFG=1
M  V30 108 1 42 106
M  V30 109 1 42 107
M  V30 110 1 42 108
M  V30 111 1 45 109 CFG=1
M  V30 112 1 46 110
M  V30 113 1 46 111
M  V30 114 1 46 112
M  V30 115 1 47 113 CFG=1
M  V30 116 1 48 114
M  V30 117 1 50 115
M  V30 118 1 50 116
M  V30 119 1 50 117
M  V30 120 1 51 118
M  V30 END BOND
M  V30 END CTAB
M  END
>  <Dataset>  (348) 
OralDrugs

>  <Ligand_Instance>  (348) 
nan

>  <PDB_ID>  (348) 
nan

>  <Standardized_SMILES>  (348) 
CC[C@H]1OC(=O)[C@H](C)[C@@H](O[C@H]2C[C@@](C)(OC)[C@@H](O)[C@H](C)O2)[C@H](C)[C@@H](O[C@@H]2O[C@H](C)C[C@H](N(C)C)[C@H]2O)[C@](C)(O)C[C@@H](C)C(=O)[C@H](C)[C@@H](O)[C@]1(C)O

>  <Name>  (348) 
Erythromycin

>  <Pocket>  (348) 
nan

>  <ATP_Site>  (348) 
nan

>  <Peripheral>  (348) 
nan

>  <Num_H_Atoms_ProtBoundConf>  (348) 
nan

>  <Num_Resolved_Atoms>  (348) 
nan

>  <Num_Not_Resolved_Atoms>  (348) 
nan

$$$$
CHEMBL2218877
     RDKit          3D

  0  0  0  0  0  0  0  0  0  0999 V3000
M  V30 BEGIN CTAB
M  V30 COUNTS 126 128 0 0 0
M  V30 BEGIN ATOM
M  V30 1 C -5.341884 -5.610778 3.246066 0
M  V30 2 C -6.243494 -4.490315 2.712320 0
M  V30 3 C -5.408133 -3.596806 1.834511 0
M  V30 4 O -6.124473 -2.669321 1.321581 0
M  V30 5 O -4.073465 -3.827181 1.670912 0
M  V30 6 C -3.202396 -3.023988 0.849657 0 CFG=1
M  V30 7 C -2.159144 -2.491052 1.756691 0 CFG=2
M  V30 8 O -1.317601 -1.516874 1.390082 0
M  V30 9 C -1.264881 -0.327625 1.997016 0 CFG=2
M  V30 10 C -1.691460 0.808146 1.141726 0 CFG=1
M  V30 11 C -1.939969 2.049393 2.048278 0
M  V30 12 C -0.780726 1.263308 0.022559 0 CFG=2
M  V30 13 O -1.613607 2.171456 -0.697368 0
M  V30 14 C -1.178117 3.443521 -0.820994 0 CFG=1
M  V30 15 C -1.166330 3.846603 -2.285631 0
M  V30 16 C -0.704265 5.270624 -2.471025 0 CFG=1
M  V30 17 C 0.749101 5.478536 -2.173142 0
M  V30 18 O -0.935127 5.606635 -3.797381 0
M  V30 19 C -0.291711 4.828246 -4.722733 0
M  V30 20 C -1.629853 6.116975 -1.626737 0 CFG=1
M  V30 21 O -2.853532 6.185761 -2.304754 0
M  V30 22 C -1.810930 5.602628 -0.236626 0 CFG=2
M  V30 23 C -0.703208 6.047716 0.695548 0
M  V30 24 O -2.122011 4.261701 -0.132932 0
M  V30 25 C -0.465907 0.154502 -0.931289 0 CFG=1
M  V30 26 C -1.608038 -0.247409 -1.814262 0
M  V30 27 C 0.836264 0.301621 -1.607114 0
M  V30 28 O 0.967201 1.513561 -1.316526 0
M  V30 29 O 1.441892 -0.803175 -2.254135 0
M  V30 30 C 2.748942 -0.592371 -2.828570 0 CFG=2
M  V30 31 C 2.819091 -0.983779 -4.252222 0
M  V30 32 C 1.796139 -0.129957 -5.014818 0
M  V30 33 C 3.710671 -1.431022 -1.928325 0 CFG=1
M  V30 34 C 3.204009 -2.846332 -2.048237 0
M  V30 35 O 5.002089 -1.273376 -2.319750 0
M  V30 36 C 3.463117 -0.826623 -0.583294 0 CFG=2
M  V30 37 O 3.770593 0.548735 -0.769592 0
M  V30 38 C 4.270245 -1.267945 0.573425 0 CFG=1
M  V30 39 C 5.735629 -1.075266 0.489382 0
M  V30 40 C 3.758065 -0.495929 1.770838 0
M  V30 41 O 4.555061 0.427856 2.047992 0
M  V30 42 C 2.597195 -0.481445 2.740068 0 CFG=2
M  V30 43 C 2.791233 -1.780822 3.560219 0
M  V30 44 C 1.270577 -0.468413 2.081994 0
M  V30 45 C 0.030589 -0.170552 2.804518 0 CFG=2
M  V30 46 C -0.083648 -1.061389 4.052217 0
M  V30 47 O 0.100634 1.119595 3.344813 0
M  V30 48 O -1.379394 -3.517650 2.260446 0
M  V30 49 C -0.969148 -4.478045 1.395235 0 CFG=2
M  V30 50 C 0.537035 -4.598894 1.521218 0
M  V30 51 C -1.231675 -4.109959 -0.073911 0
M  V30 52 C -2.732852 -3.959341 -0.225072 0 CFG=2
M  V30 53 N -3.125112 -3.612506 -1.561002 0
M  V30 54 C -2.627897 -4.546301 -2.554964 0
M  V30 55 C -4.593024 -3.626485 -1.605092 0
M  V30 56 H -4.297704 -5.259779 3.371281 0
M  V30 57 H -5.295403 -6.472548 2.527050 0
M  V30 58 H -5.756982 -6.026103 4.201992 0
M  V30 59 H -6.720857 -3.938199 3.539813 0
M  V30 60 H -6.987419 -4.981067 2.053776 0
M  V30 61 H -3.896739 -2.266914 0.442466 0
M  V30 62 H -2.734680 -2.096523 2.655259 0
M  V30 63 H -2.054694 -0.300027 2.835243 0
M  V30 64 H -2.672558 0.583458 0.715246 0
M  V30 65 H -2.901777 2.486913 1.729339 0
M  V30 66 H -1.161708 2.790269 1.968128 0
M  V30 67 H -2.136946 1.632144 3.056853 0
M  V30 68 H 0.101582 1.845757 0.363482 0
M  V30 69 H -0.224654 3.727350 -0.387821 0
M  V30 70 H -0.492468 3.197977 -2.823668 0
M  V30 71 H -2.214701 3.797286 -2.635210 0
M  V30 72 H 1.331830 5.886167 -3.045398 0
M  V30 73 H 1.262442 4.504445 -1.924610 0
M  V30 74 H 0.931369 6.250387 -1.371133 0
M  V30 75 H -0.572458 5.224644 -5.744360 0
M  V30 76 H -0.667381 3.762755 -4.768095 0
M  V30 77 H 0.796074 4.830785 -4.703376 0
M  V30 78 H -1.200528 7.127611 -1.564925 0
M  V30 79 H -2.786449 6.788836 -3.091452 0
M  V30 80 H -2.742197 6.125721 0.144160 0
M  V30 81 H -0.446041 7.095786 0.401812 0
M  V30 82 H -1.145250 6.146298 1.731308 0
M  V30 83 H 0.164864 5.373881 0.721610 0
M  V30 84 H -0.284788 -0.823572 -0.330464 0
M  V30 85 H -2.282656 -0.984359 -1.344509 0
M  V30 86 H -2.219035 0.662829 -2.034951 0
M  V30 87 H -1.264210 -0.632320 -2.808068 0
M  V30 88 H 3.052163 0.439537 -2.680054 0
M  V30 89 H 3.821019 -0.862851 -4.667036 0
M  V30 90 H 2.426610 -2.036626 -4.321344 0
M  V30 91 H 1.677259 -0.565343 -6.014761 0
M  V30 92 H 2.122915 0.930839 -5.042029 0
M  V30 93 H 0.815767 -0.149484 -4.505542 0
M  V30 94 H 3.245375 -3.425714 -1.107039 0
M  V30 95 H 2.135789 -2.887875 -2.382529 0
M  V30 96 H 3.778922 -3.337097 -2.859988 0
M  V30 97 H 5.514189 -2.099850 -2.508353 0
M  V30 98 H 2.372055 -0.963462 -0.429246 0
M  V30 99 H 4.570435 0.683593 -1.312076 0
M  V30 100 H 4.106579 -2.350379 0.839324 0
M  V30 101 H 5.974350 -0.152232 -0.089805 0
M  V30 102 H 6.127059 -0.850955 1.521319 0
M  V30 103 H 6.302511 -1.967448 0.163666 0
M  V30 104 H 2.717070 0.339617 3.430401 0
M  V30 105 H 2.304099 -2.589701 3.025056 0
M  V30 106 H 2.441002 -1.691958 4.590600 0
M  V30 107 H 3.905384 -1.958753 3.599199 0
M  V30 108 H 1.167976 -1.466538 1.528261 0
M  V30 109 H 1.374531 0.256521 1.244394 0
M  V30 110 H -1.163061 -1.055435 4.394515 0
M  V30 111 H 0.241199 -2.072727 3.886863 0
M  V30 112 H 0.467995 -0.572205 4.853113 0
M  V30 113 H -0.124176 1.189994 4.282901 0
M  V30 114 H -1.367057 -5.493118 1.610996 0
M  V30 115 H 0.997635 -3.775676 0.925447 0
M  V30 116 H 0.927752 -5.530151 1.051748 0
M  V30 117 H 0.893293 -4.470941 2.561559 0
M  V30 118 H -0.664354 -3.222867 -0.364105 0
M  V30 119 H -0.859735 -4.968563 -0.667565 0
M  V30 120 H -3.144522 -4.969687 -0.028420 0
M  V30 121 H -1.538657 -4.542604 -2.542577 0
M  V30 122 H -2.956299 -4.128378 -3.549676 0
M  V30 123 H -3.105266 -5.540870 -2.506104 0
M  V30 124 H -4.935376 -4.409060 -0.901062 0
M  V30 125 H -4.972935 -3.947201 -2.601256 0
M  V30 126 H -5.012988 -2.669461 -1.284067 0
M  V30 END ATOM
M  V30 BEGIN BOND
M  V30 1 1 1 2
M  V30 2 1 2 3
M  V30 3 2 3 4
M  V30 4 1 3 5
M  V30 5 1 5 6
M  V30 6 1 6 7
M  V30 7 1 7 8
M  V30 8 1 8 9
M  V30 9 1 9 10
M  V30 10 1 10 11
M  V30 11 1 10 12
M  V30 12 1 12 13
M  V30 13 1 13 14
M  V30 14 1 14 15
M  V30 15 1 15 16
M  V30 16 1 16 17
M  V30 17 1 16 18 CFG=3
M  V30 18 1 18 19
M  V30 19 1 16 20
M  V30 20 1 20 21
M  V30 21 1 20 22
M  V30 22 1 22 23
M  V30 23 1 22 24
M  V30 24 1 12 25
M  V30 25 1 25 26
M  V30 26 1 25 27
M  V30 27 2 27 28
M  V30 28 1 27 29
M  V30 29 1 29 30
M  V30 30 1 30 31
M  V30 31 1 31 32
M  V30 32 1 30 33
M  V30 33 1 33 34
M  V30 34 1 33 35 CFG=3
M  V30 35 1 33 36
M  V30 36 1 36 37
M  V30 37 1 36 38
M  V30 38 1 38 39
M  V30 39 1 38 40
M  V30 40 2 40 41
M  V30 41 1 40 42
M  V30 42 1 42 43
M  V30 43 1 42 44
M  V30 44 1 44 45
M  V30 45 1 45 46
M  V30 46 1 45 47 CFG=1
M  V30 47 1 7 48
M  V30 48 1 48 49
M  V30 49 1 49 50
M  V30 50 1 49 51
M  V30 51 1 51 52
M  V30 52 1 52 53
M  V30 53 1 53 54
M  V30 54 1 53 55
M  V30 55 1 52 6
M  V30 56 1 45 9
M  V30 57 1 24 14
M  V30 58 1 1 56
M  V30 59 1 1 57
M  V30 60 1 1 58
M  V30 61 1 2 59
M  V30 62 1 2 60
M  V30 63 1 6 61 CFG=3
M  V30 64 1 7 62 CFG=1
M  V30 65 1 9 63 CFG=1
M  V30 66 1 10 64 CFG=3
M  V30 67 1 11 65
M  V30 68 1 11 66
M  V30 69 1 11 67
M  V30 70 1 12 68 CFG=1
M  V30 71 1 14 69 CFG=1
M  V30 72 1 15 70
M  V30 73 1 15 71
M  V30 74 1 17 72
M  V30 75 1 17 73
M  V30 76 1 17 74
M  V30 77 1 19 75
M  V30 78 1 19 76
M  V30 79 1 19 77
M  V30 80 1 20 78 CFG=1
M  V30 81 1 21 79
M  V30 82 1 22 80 CFG=1
M  V30 83 1 23 81
M  V30 84 1 23 82
M  V30 85 1 23 83
M  V30 86 1 25 84 CFG=1
M  V30 87 1 26 85
M  V30 88 1 26 86
M  V30 89 1 26 87
M  V30 90 1 30 88 CFG=3
M  V30 91 1 31 89
M  V30 92 1 31 90
M  V30 93 1 32 91
M  V30 94 1 32 92
M  V30 95 1 32 93
M  V30 96 1 34 94
M  V30 97 1 34 95
M  V30 98 1 34 96
M  V30 99 1 35 97
M  V30 100 1 36 98 CFG=1
M  V30 101 1 37 99
M  V30 102 1 38 100 CFG=1
M  V30 103 1 39 101
M  V30 104 1 39 102
M  V30 105 1 39 103
M  V30 106 1 42 104 CFG=1
M  V30 107 1 43 105
M  V30 108 1 43 106
M  V30 109 1 43 107
M  V30 110 1 44 108
M  V30 111 1 44 109
M  V30 112 1 46 110
M  V30 113 1 46 111
M  V30 114 1 46 112
M  V30 115 1 47 113
M  V30 116 1 49 114 CFG=1
M  V30 117 1 50 115
M  V30 118 1 50 116
M  V30 119 1 50 117
M  V30 120 1 51 118
M  V30 121 1 51 119
M  V30 122 1 52 120 CFG=1
M  V30 123 1 54 121
M  V30 124 1 54 122
M  V30 125 1 54 123
M  V30 126 1 55 124
M  V30 127 1 55 125
M  V30 128 1 55 126
M  V30 END BOND
M  V30 END CTAB
M  END
>  <Dataset>  (349) 
OralDrugs

>  <Ligand_Instance>  (349) 
nan

>  <PDB_ID>  (349) 
nan

>  <Standardized_SMILES>  (349) 
CCC(=O)O[C@H]1[C@H](O[C@@H]2[C@@H](C)[C@H](O[C@H]3C[C@@](C)(OC)[C@@H](O)[C@H](C)O3)[C@@H](C)C(=O)O[C@H](CC)[C@@](C)(O)[C@H](O)[C@@H](C)C(=O)[C@H](C)C[C@@]2(C)O)O[C@H](C)C[C@@H]1N(C)C

>  <Name>  (349) 
Erythromycin Estolate

>  <Pocket>  (349) 
nan

>  <ATP_Site>  (349) 
nan

>  <Peripheral>  (349) 
nan

>  <Num_H_Atoms_ProtBoundConf>  (349) 
nan

>  <Num_Resolved_Atoms>  (349) 
nan

>  <Num_Not_Resolved_Atoms>  (349) 
nan

$$$$
CHEMBL1508
     RDKit          3D

  0  0  0  0  0  0  0  0  0  0999 V3000
M  V30 BEGIN CTAB
M  V30 COUNTS 45 47 0 0 0
M  V30 BEGIN ATOM
M  V30 1 C 0.561295 -1.834825 -2.153568 0
M  V30 2 N 0.948888 -2.539253 -0.961603 0
M  V30 3 C 0.597271 -3.931605 -0.996573 0
M  V30 4 C 2.264914 -2.303405 -0.509549 0
M  V30 5 C 2.568754 -0.955934 0.044196 0
M  V30 6 C 1.873337 -0.505761 1.264173 0
M  V30 7 C 0.415519 -0.350717 1.161728 0 CFG=1
M  V30 8 C 0.047953 0.671740 0.116968 0
M  V30 9 C -1.140646 0.646487 -0.579468 0
M  V30 10 C -1.517510 1.569192 -1.525855 0
M  V30 11 C -0.670114 2.592492 -1.814161 0
M  V30 12 F -1.055473 3.497527 -2.748756 0
M  V30 13 C 0.529863 2.693159 -1.170713 0
M  V30 14 C 0.851407 1.747015 -0.238574 0
M  V30 15 O -0.277505 -1.515266 0.968087 0
M  V30 16 C -0.437549 -2.107458 2.188236 0
M  V30 17 C -0.688390 -0.977231 3.115681 0
M  V30 18 C -1.300024 -0.888646 4.365329 0
M  V30 19 C -1.320985 0.383662 4.883403 0
M  V30 20 C -1.938755 0.569051 6.188386 0
M  V30 21 N -2.421529 0.703592 7.230179 0
M  V30 22 C -0.816502 1.529607 4.308366 0
M  V30 23 C -0.221600 1.388414 3.072638 0
M  V30 24 C -0.165750 0.131337 2.490951 0
M  V30 25 H -0.556068 -1.695723 -2.114024 0
M  V30 26 H 1.068364 -0.870018 -2.305034 0
M  V30 27 H 0.709765 -2.496702 -3.060894 0
M  V30 28 H 0.163981 -4.263608 -1.960723 0
M  V30 29 H -0.231370 -4.118713 -0.249229 0
M  V30 30 H 1.430386 -4.604698 -0.767025 0
M  V30 31 H 3.045870 -2.620206 -1.272391 0
M  V30 32 H 2.454042 -3.062933 0.319592 0
M  V30 33 H 3.704274 -0.959077 0.202815 0
M  V30 34 H 2.474358 -0.157598 -0.758248 0
M  V30 35 H 2.347881 0.460144 1.621062 0
M  V30 36 H 2.144068 -1.250016 2.072864 0
M  V30 37 H -1.830757 -0.181846 -0.348677 0
M  V30 38 H -2.476237 1.456760 -2.015293 0
M  V30 39 H 1.196643 3.501404 -1.397614 0
M  V30 40 H 1.807255 1.870729 0.254918 0
M  V30 41 H -1.327502 -2.782227 2.119869 0
M  V30 42 H 0.397712 -2.764639 2.500317 0
M  V30 43 H -1.709692 -1.742190 4.857584 0
M  V30 44 H -0.875619 2.495952 4.790188 0
M  V30 45 H 0.204609 2.199026 2.530587 0
M  V30 END ATOM
M  V30 BEGIN BOND
M  V30 1 1 1 2
M  V30 2 1 2 3
M  V30 3 1 2 4
M  V30 4 1 4 5
M  V30 5 1 5 6
M  V30 6 1 7 6 CFG=1
M  V30 7 1 7 8
M  V30 8 2 8 9
M  V30 9 1 9 10
M  V30 10 2 10 11
M  V30 11 1 11 12
M  V30 12 1 11 13
M  V30 13 2 13 14
M  V30 14 1 7 15
M  V30 15 1 15 16
M  V30 16 1 16 17
M  V30 17 2 17 18
M  V30 18 1 18 19
M  V30 19 1 19 20
M  V30 20 3 20 21
M  V30 21 2 19 22
M  V30 22 1 22 23
M  V30 23 2 23 24
M  V30 24 1 24 7
M  V30 25 1 14 8
M  V30 26 1 24 17
M  V30 27 1 1 25
M  V30 28 1 1 26
M  V30 29 1 1 27
M  V30 30 1 3 28
M  V30 31 1 3 29
M  V30 32 1 3 30
M  V30 33 1 4 31
M  V30 34 1 4 32
M  V30 35 1 5 33
M  V30 36 1 5 34
M  V30 37 1 6 35
M  V30 38 1 6 36
M  V30 39 1 9 37
M  V30 40 1 10 38
M  V30 41 1 13 39
M  V30 42 1 14 40
M  V30 43 1 16 41
M  V30 44 1 16 42
M  V30 45 1 18 43
M  V30 46 1 22 44
M  V30 47 1 23 45
M  V30 END BOND
M  V30 END CTAB
M  END
>  <Dataset>  (350) 
OralDrugs

>  <Ligand_Instance>  (350) 
nan

>  <PDB_ID>  (350) 
nan

>  <Standardized_SMILES>  (350) 
CN(C)CCC[C@@]1(c2ccc(F)cc2)OCc2cc(C#N)ccc21

>  <Name>  (350) 
Escitalopram

>  <Pocket>  (350) 
nan

>  <ATP_Site>  (350) 
nan

>  <Peripheral>  (350) 
nan

>  <Num_H_Atoms_ProtBoundConf>  (350) 
nan

>  <Num_Resolved_Atoms>  (350) 
nan

>  <Num_Not_Resolved_Atoms>  (350) 
nan

$$$$
CHEMBL285674
     RDKit          3D

  0  0  0  0  0  0  0  0  0  0999 V3000
M  V30 BEGIN CTAB
M  V30 COUNTS 32 35 0 0 0
M  V30 BEGIN ATOM
M  V30 1 Cl 2.774667 -3.678241 2.548690 0
M  V30 2 C 1.228162 -3.042348 2.102879 0
M  V30 3 C 0.044265 -3.770479 2.222872 0
M  V30 4 C -1.189769 -3.254611 1.864218 0
M  V30 5 C -1.172244 -1.949056 1.369234 0
M  V30 6 C 0.000500 -1.228050 1.246415 0
M  V30 7 C 1.245371 -1.756332 1.615851 0
M  V30 8 C 0.148364 0.116301 0.701039 0
M  V30 9 C 1.314315 0.420048 -0.103614 0
M  V30 10 C 2.360489 -0.237627 -0.674076 0
M  V30 11 C 3.419084 0.313269 -1.343612 0
M  V30 12 C 3.492271 1.673625 -1.493441 0
M  V30 13 C 2.485390 2.433611 -0.957326 0
M  V30 14 C 1.449304 1.811756 -0.294177 0
M  V30 15 N -0.753154 1.046538 0.932587 0
M  V30 16 C -1.982149 1.008068 1.684242 0
M  V30 17 C -2.843486 -0.158709 1.243727 0
M  V30 18 N -4.156955 -0.176913 0.896878 0
M  V30 19 N -4.524392 -1.398777 0.577702 0
M  V30 20 C -3.507240 -2.272734 0.684042 0
M  V30 21 N -2.512154 -1.480381 1.089154 0
M  V30 22 H 0.076165 -4.775641 2.608482 0
M  V30 23 H -2.130499 -3.759133 1.938186 0
M  V30 24 H 2.093256 -1.107382 1.530115 0
M  V30 25 H 2.214948 -1.303174 -0.572966 0
M  V30 26 H 4.128682 -0.417269 -1.706221 0
M  V30 27 H 4.358568 2.013369 -2.032514 0
M  V30 28 H 2.581456 3.490508 -1.098164 0
M  V30 29 H 0.731464 2.557523 0.071693 0
M  V30 30 H -2.533459 1.923771 1.481200 0
M  V30 31 H -1.739065 0.945630 2.760292 0
M  V30 32 H -3.404269 -3.331455 0.513987 0
M  V30 END ATOM
M  V30 BEGIN BOND
M  V30 1 1 1 2
M  V30 2 2 2 3
M  V30 3 1 3 4
M  V30 4 2 4 5
M  V30 5 1 5 6
M  V30 6 2 6 7
M  V30 7 1 6 8
M  V30 8 1 8 9
M  V30 9 2 9 10
M  V30 10 1 10 11
M  V30 11 2 11 12
M  V30 12 1 12 13
M  V30 13 2 13 14
M  V30 14 2 8 15
M  V30 15 1 15 16
M  V30 16 1 16 17
M  V30 17 2 17 18
M  V30 18 1 18 19
M  V30 19 2 19 20
M  V30 20 1 20 21
M  V30 21 1 7 2
M  V30 22 1 14 9
M  V30 23 1 21 17
M  V30 24 1 21 5
M  V30 25 1 3 22
M  V30 26 1 4 23
M  V30 27 1 7 24
M  V30 28 1 10 25
M  V30 29 1 11 26
M  V30 30 1 12 27
M  V30 31 1 13 28
M  V30 32 1 14 29
M  V30 33 1 16 30
M  V30 34 1 16 31
M  V30 35 1 20 32
M  V30 END BOND
M  V30 END CTAB
M  END
>  <Dataset>  (351) 
OralDrugs

>  <Ligand_Instance>  (351) 
nan

>  <PDB_ID>  (351) 
nan

>  <Standardized_SMILES>  (351) 
Clc1ccc2c(c1)C(c1ccccc1)=NCc1nncn1-2

>  <Name>  (351) 
Estazolam

>  <Pocket>  (351) 
nan

>  <ATP_Site>  (351) 
nan

>  <Peripheral>  (351) 
nan

>  <Num_H_Atoms_ProtBoundConf>  (351) 
nan

>  <Num_Resolved_Atoms>  (351) 
nan

>  <Num_Not_Resolved_Atoms>  (351) 
nan

$$$$
CHEMBL1230314
     RDKit          3D

  0  0  0  0  0  0  0  0  0  0999 V3000
M  V30 BEGIN CTAB
M  V30 COUNTS 46 49 0 0 0
M  V30 BEGIN ATOM
M  V30 1 C 0.196479 -2.141079 3.248374 0
M  V30 2 C -0.695574 -1.960803 2.056760 0 CFG=2
M  V30 3 C -0.254167 -2.769686 0.894784 0
M  V30 4 C 0.880568 -2.120595 0.152762 0
M  V30 5 C 0.488268 -0.716868 -0.216921 0 CFG=2
M  V30 6 C 1.426599 -0.040207 -1.117593 0
M  V30 7 C 1.621371 -0.680330 -2.327109 0
M  V30 8 C 2.487630 -0.152982 -3.286150 0
M  V30 9 C 3.116712 1.024653 -2.941586 0
M  V30 10 O 4.003395 1.606380 -3.868288 0
M  V30 11 C 2.951468 1.696962 -1.746140 0
M  V30 12 C 2.080978 1.145578 -0.810533 0
M  V30 13 C 1.840433 1.798932 0.503439 0
M  V30 14 C 0.380077 1.496809 0.868049 0
M  V30 15 C 0.324825 0.023430 1.104253 0 CFG=1
M  V30 16 C -0.918750 -0.504929 1.685120 0 CFG=2
M  V30 17 C -1.406227 0.031869 2.969327 0 CFG=1
M  V30 18 O -1.954935 1.284415 2.786950 0
M  V30 19 C -2.470494 -1.015938 3.326523 0 CFG=1
M  V30 20 O -3.700684 -0.514382 2.859789 0
M  V30 21 C -2.109141 -2.265286 2.511561 0 CFG=2
M  V30 22 O -2.217988 -3.417419 3.255361 0
M  V30 23 H 0.850093 -3.029437 3.048169 0
M  V30 24 H 0.861076 -1.299297 3.475243 0
M  V30 25 H -0.362754 -2.416879 4.184618 0
M  V30 26 H -1.049937 -2.973296 0.170163 0
M  V30 27 H 0.152818 -3.743263 1.296341 0
M  V30 28 H 1.069764 -2.662023 -0.809658 0
M  V30 29 H 1.794027 -2.041577 0.782193 0
M  V30 30 H -0.535306 -0.803923 -0.685301 0
M  V30 31 H 1.133459 -1.607581 -2.612535 0
M  V30 32 H 2.690246 -0.596681 -4.253368 0
M  V30 33 H 3.601485 2.170210 -4.633701 0
M  V30 34 H 3.472119 2.618842 -1.530116 0
M  V30 35 H 2.070089 2.862101 0.514296 0
M  V30 36 H 2.444208 1.213820 1.248702 0
M  V30 37 H 0.062393 2.044896 1.769448 0
M  V30 38 H -0.201466 1.780727 -0.044191 0
M  V30 39 H 1.228142 -0.252504 1.691256 0
M  V30 40 H -1.745902 -0.479928 0.948586 0
M  V30 41 H -0.648474 0.074409 3.767552 0
M  V30 42 H -2.268178 1.338359 1.833427 0
M  V30 43 H -2.540346 -1.207310 4.396226 0
M  V30 44 H -3.570234 -0.257589 1.918337 0
M  V30 45 H -2.730246 -2.253344 1.584072 0
M  V30 46 H -2.959621 -3.333725 3.919410 0
M  V30 END ATOM
M  V30 BEGIN BOND
M  V30 1 1 2 1 CFG=1
M  V30 2 1 2 3
M  V30 3 1 3 4
M  V30 4 1 4 5
M  V30 5 1 5 6
M  V30 6 2 6 7
M  V30 7 1 7 8
M  V30 8 2 8 9
M  V30 9 1 9 10
M  V30 10 1 9 11
M  V30 11 2 11 12
M  V30 12 1 12 13
M  V30 13 1 13 14
M  V30 14 1 14 15
M  V30 15 1 15 16
M  V30 16 1 16 17
M  V30 17 1 17 18
M  V30 18 1 17 19
M  V30 19 1 19 20
M  V30 20 1 19 21
M  V30 21 1 21 22
M  V30 22 1 16 2
M  V30 23 1 21 2
M  V30 24 1 15 5
M  V30 25 1 12 6
M  V30 26 1 1 23
M  V30 27 1 1 24
M  V30 28 1 1 25
M  V30 29 1 3 26
M  V30 30 1 3 27
M  V30 31 1 4 28
M  V30 32 1 4 29
M  V30 33 1 5 30 CFG=3
M  V30 34 1 7 31
M  V30 35 1 8 32
M  V30 36 1 10 33
M  V30 37 1 11 34
M  V30 38 1 13 35
M  V30 39 1 13 36
M  V30 40 1 14 37
M  V30 41 1 14 38
M  V30 42 1 15 39 CFG=1
M  V30 43 1 16 40 CFG=3
M  V30 44 1 17 41 CFG=1
M  V30 45 1 18 42
M  V30 46 1 19 43 CFG=1
M  V30 47 1 20 44
M  V30 48 1 21 45 CFG=3
M  V30 49 1 22 46
M  V30 END BOND
M  V30 END CTAB
M  END
>  <Dataset>  (352) 
OralDrugs

>  <Ligand_Instance>  (352) 
nan

>  <PDB_ID>  (352) 
nan

>  <Standardized_SMILES>  (352) 
C[C@]12CC[C@@H]3c4ccc(O)cc4CC[C@H]3[C@@H]1[C@@H](O)[C@@H](O)[C@@H]2O

>  <Name>  (352) 
Estetrol

>  <Pocket>  (352) 
nan

>  <ATP_Site>  (352) 
nan

>  <Peripheral>  (352) 
nan

>  <Num_H_Atoms_ProtBoundConf>  (352) 
nan

>  <Num_Resolved_Atoms>  (352) 
nan

>  <Num_Not_Resolved_Atoms>  (352) 
nan

$$$$
CHEMBL135
     RDKit          3D

  0  0  0  0  0  0  0  0  0  0999 V3000
M  V30 BEGIN CTAB
M  V30 COUNTS 44 47 0 0 0
M  V30 BEGIN ATOM
M  V30 1 C 2.214548 -2.064797 0.809050 0
M  V30 2 C 0.920431 -2.370625 1.510812 0 CFG=2
M  V30 3 C -0.175910 -2.764597 0.584481 0
M  V30 4 C -0.632109 -1.637697 -0.274122 0
M  V30 5 C -0.772472 -0.308549 0.406338 0 CFG=2
M  V30 6 C -0.804628 0.763435 -0.628233 0
M  V30 7 C -1.228811 0.455449 -1.899202 0
M  V30 8 C -1.233576 1.490486 -2.803017 0
M  V30 9 C -0.848164 2.786996 -2.519064 0
M  V30 10 O -0.864747 3.808663 -3.454165 0
M  V30 11 C -0.425167 3.065027 -1.226743 0
M  V30 12 C -0.407388 2.038551 -0.283160 0
M  V30 13 C 0.060998 2.436346 1.070731 0
M  V30 14 C 0.271735 1.285590 1.997060 0
M  V30 15 C 0.428319 -0.028325 1.319134 0 CFG=1
M  V30 16 C 0.413060 -1.153438 2.296875 0 CFG=2
M  V30 17 C 1.375143 -1.042310 3.429545 0
M  V30 18 C 1.926692 -2.422891 3.611332 0
M  V30 19 C 1.169696 -3.316133 2.631105 0 CFG=2
M  V30 20 O 2.010818 -4.372676 2.304412 0
M  V30 21 H 2.822501 -3.002280 0.835098 0
M  V30 22 H 2.815238 -1.312194 1.382082 0
M  V30 23 H 2.094600 -1.766455 -0.251706 0
M  V30 24 H 0.270008 -3.529440 -0.115936 0
M  V30 25 H -0.977409 -3.300403 1.105027 0
M  V30 26 H 0.021828 -1.501582 -1.165576 0
M  V30 27 H -1.637269 -1.912267 -0.680227 0
M  V30 28 H -1.680386 -0.227624 1.012211 0
M  V30 29 H -1.542889 -0.536270 -2.186257 0
M  V30 30 H -1.556699 1.308370 -3.816169 0
M  V30 31 H -0.243047 3.741167 -4.249892 0
M  V30 32 H -0.115409 4.088821 -0.983116 0
M  V30 33 H 0.997623 3.042778 0.898229 0
M  V30 34 H -0.658912 3.133863 1.552572 0
M  V30 35 H -0.489647 1.193529 2.782265 0
M  V30 36 H 1.245976 1.490311 2.529363 0
M  V30 37 H 1.319553 -0.080367 0.650072 0
M  V30 38 H -0.617771 -1.395921 2.590454 0
M  V30 39 H 2.155652 -0.265276 3.283402 0
M  V30 40 H 0.779453 -0.810369 4.349631 0
M  V30 41 H 3.000919 -2.429627 3.298368 0
M  V30 42 H 1.883522 -2.810354 4.634396 0
M  V30 43 H 0.273061 -3.692562 3.126197 0
M  V30 44 H 1.838923 -4.745172 1.413931 0
M  V30 END ATOM
M  V30 BEGIN BOND
M  V30 1 1 2 1 CFG=3
M  V30 2 1 2 3
M  V30 3 1 3 4
M  V30 4 1 4 5
M  V30 5 1 5 6
M  V30 6 2 6 7
M  V30 7 1 7 8
M  V30 8 2 8 9
M  V30 9 1 9 10
M  V30 10 1 9 11
M  V30 11 2 11 12
M  V30 12 1 12 13
M  V30 13 1 13 14
M  V30 14 1 14 15
M  V30 15 1 15 16
M  V30 16 1 16 17
M  V30 17 1 17 18
M  V30 18 1 18 19
M  V30 19 1 19 20
M  V30 20 1 16 2
M  V30 21 1 19 2
M  V30 22 1 15 5
M  V30 23 1 12 6
M  V30 24 1 1 21
M  V30 25 1 1 22
M  V30 26 1 1 23
M  V30 27 1 3 24
M  V30 28 1 3 25
M  V30 29 1 4 26
M  V30 30 1 4 27
M  V30 31 1 5 28 CFG=1
M  V30 32 1 7 29
M  V30 33 1 8 30
M  V30 34 1 10 31
M  V30 35 1 11 32
M  V30 36 1 13 33
M  V30 37 1 13 34
M  V30 38 1 14 35
M  V30 39 1 14 36
M  V30 40 1 15 37 CFG=3
M  V30 41 1 16 38 CFG=1
M  V30 42 1 17 39
M  V30 43 1 17 40
M  V30 44 1 18 41
M  V30 45 1 18 42
M  V30 46 1 19 43 CFG=1
M  V30 47 1 20 44
M  V30 END BOND
M  V30 END CTAB
M  END
>  <Dataset>  (353) 
OralDrugs

>  <Ligand_Instance>  (353) 
nan

>  <PDB_ID>  (353) 
nan

>  <Standardized_SMILES>  (353) 
C[C@]12CC[C@@H]3c4ccc(O)cc4CC[C@H]3[C@@H]1CC[C@@H]2O

>  <Name>  (353) 
Estradiol

>  <Pocket>  (353) 
nan

>  <ATP_Site>  (353) 
nan

>  <Peripheral>  (353) 
nan

>  <Num_H_Atoms_ProtBoundConf>  (353) 
nan

>  <Num_Resolved_Atoms>  (353) 
nan

>  <Num_Not_Resolved_Atoms>  (353) 
nan

$$$$
CHEMBL1200430
     RDKit          3D

  0  0  0  0  0  0  0  0  0  0999 V3000
M  V30 BEGIN CTAB
M  V30 COUNTS 49 52 0 0 0
M  V30 BEGIN ATOM
M  V30 1 C 5.758761 0.359244 2.928620 0
M  V30 2 C 4.493787 0.607582 2.241470 0
M  V30 3 O 3.528185 1.375038 2.001011 0
M  V30 4 O 3.557030 1.629184 2.144646 0
M  V30 5 C 2.438607 1.429829 1.330089 0
M  V30 6 C 2.446827 1.791577 -0.017024 0
M  V30 7 C 1.361930 1.609306 -0.849172 0
M  V30 8 C 0.205815 1.046148 -0.350625 0
M  V30 9 C 0.186041 0.683991 0.981914 0
M  V30 10 C 1.262036 0.858338 1.831449 0
M  V30 11 C -0.997058 0.058830 1.676389 0
M  V30 12 C -2.002101 -0.461390 0.707890 0
M  V30 13 C -1.471959 -0.569649 -0.721915 0 CFG=2
M  V30 14 C -1.033294 0.793664 -1.134206 0 CFG=2
M  V30 15 C -0.827746 0.980644 -2.605341 0
M  V30 16 C -1.901128 0.347015 -3.416549 0
M  V30 17 C -2.058256 -1.075626 -3.035924 0 CFG=2
M  V30 18 C -0.883096 -1.947533 -3.254679 0
M  V30 19 C -3.271266 -1.738542 -3.687559 0 CFG=1
M  V30 20 O -2.942518 -2.103546 -4.992802 0
M  V30 21 C -3.387433 -2.978576 -2.791089 0
M  V30 22 C -2.863925 -2.537053 -1.429581 0
M  V30 23 C -2.560014 -1.092456 -1.586110 0 CFG=1
M  V30 24 H 6.360910 -0.293812 2.230706 0
M  V30 25 H 6.332293 1.270191 3.198751 0
M  V30 26 H 5.558873 -0.284767 3.818994 0
M  V30 27 H 3.354630 2.232644 -0.404105 0
M  V30 28 H 1.366684 1.886978 -1.884908 0
M  V30 29 H 1.277098 0.585525 2.877127 0
M  V30 30 H -0.640831 -0.783899 2.299990 0
M  V30 31 H -1.423273 0.794471 2.417819 0
M  V30 32 H -2.849139 0.264876 0.657049 0
M  V30 33 H -2.367248 -1.475817 0.971026 0
M  V30 34 H -0.608818 -1.244895 -0.763768 0
M  V30 35 H -1.818137 1.518270 -0.808724 0
M  V30 36 H 0.146682 0.673883 -2.980928 0
M  V30 37 H -0.880537 2.092781 -2.798232 0
M  V30 38 H -1.639903 0.429202 -4.498309 0
M  V30 39 H -2.880290 0.847415 -3.280300 0
M  V30 40 H -0.575275 -2.523567 -2.352297 0
M  V30 41 H -1.088575 -2.714187 -4.046556 0
M  V30 42 H 0.027182 -1.420463 -3.601166 0
M  V30 43 H -4.170383 -1.115096 -3.608901 0
M  V30 44 H -2.966302 -3.092503 -5.121083 0
M  V30 45 H -2.717861 -3.738544 -3.247881 0
M  V30 46 H -4.433470 -3.335763 -2.752289 0
M  V30 47 H -3.718878 -2.662699 -0.712706 0
M  V30 48 H -2.045137 -3.173569 -1.071964 0
M  V30 49 H -3.492015 -0.518942 -1.528213 0
M  V30 END ATOM
M  V30 BEGIN BOND
M  V30 1 1 1 2
M  V30 2 2 2 3
M  V30 3 1 2 4
M  V30 4 1 4 5
M  V30 5 2 5 6
M  V30 6 1 6 7
M  V30 7 2 7 8
M  V30 8 1 8 9
M  V30 9 2 9 10
M  V30 10 1 9 11
M  V30 11 1 11 12
M  V30 12 1 12 13
M  V30 13 1 13 14
M  V30 14 1 14 15
M  V30 15 1 15 16
M  V30 16 1 16 17
M  V30 17 1 17 18 CFG=1
M  V30 18 1 17 19
M  V30 19 1 19 20
M  V30 20 1 19 21
M  V30 21 1 21 22
M  V30 22 1 22 23
M  V30 23 1 10 5
M  V30 24 1 23 13
M  V30 25 1 14 8
M  V30 26 1 23 17
M  V30 27 1 1 24
M  V30 28 1 1 25
M  V30 29 1 1 26
M  V30 30 1 6 27
M  V30 31 1 7 28
M  V30 32 1 10 29
M  V30 33 1 11 30
M  V30 34 1 11 31
M  V30 35 1 12 32
M  V30 36 1 12 33
M  V30 37 1 13 34 CFG=1
M  V30 38 1 14 35 CFG=1
M  V30 39 1 15 36
M  V30 40 1 15 37
M  V30 41 1 16 38
M  V30 42 1 16 39
M  V30 43 1 18 40
M  V30 44 1 18 41
M  V30 45 1 18 42
M  V30 46 1 19 43 CFG=3
M  V30 47 1 20 44
M  V30 48 1 21 45
M  V30 49 1 21 46
M  V30 50 1 22 47
M  V30 51 1 22 48
M  V30 52 1 23 49 CFG=3
M  V30 END BOND
M  V30 END CTAB
M  END
>  <Dataset>  (354) 
OralDrugs

>  <Ligand_Instance>  (354) 
nan

>  <PDB_ID>  (354) 
nan

>  <Standardized_SMILES>  (354) 
CC(=O)Oc1ccc2c(c1)CC[C@@H]1[C@@H]2CC[C@]2(C)[C@@H](O)CC[C@@H]12

>  <Name>  (354) 
Estradiol Acetate

>  <Pocket>  (354) 
nan

>  <ATP_Site>  (354) 
nan

>  <Peripheral>  (354) 
nan

>  <Num_H_Atoms_ProtBoundConf>  (354) 
nan

>  <Num_Resolved_Atoms>  (354) 
nan

>  <Num_Not_Resolved_Atoms>  (354) 
nan

$$$$
CHEMBL494753
     RDKit          3D

  0  0  0  0  0  0  0  0  0  0999 V3000
M  V30 BEGIN CTAB
M  V30 COUNTS 46 49 0 0 0
M  V30 BEGIN ATOM
M  V30 1 C -1.127896 -3.770731 -0.565357 0
M  V30 2 C -1.692775 -2.934658 0.526806 0 CFG=2
M  V30 3 C -2.422048 -1.722218 0.077024 0
M  V30 4 C -1.379754 -0.769235 -0.505464 0
M  V30 5 C -0.465352 -0.353368 0.607205 0 CFG=2
M  V30 6 C 0.495819 0.683164 0.234980 0
M  V30 7 C 0.479754 1.422301 -0.924395 0
M  V30 8 C 1.405195 2.392315 -1.239659 0
M  V30 9 C 2.437966 2.658430 -0.333537 0
M  V30 10 O 3.351807 3.643550 -0.686859 0
M  V30 11 S 2.970357 5.245796 -0.188955 0
M  V30 12 O 1.524485 5.357246 0.236611 0
M  V30 13 O 3.178219 6.232779 -1.299299 0
M  V30 14 O 3.912896 5.732151 1.106234 0
M  V30 15 C 2.475285 1.929218 0.837631 0
M  V30 16 C 1.524909 0.966773 1.109456 0
M  V30 17 C 1.661513 0.258342 2.375126 0
M  V30 18 C 0.975587 -1.050580 2.458524 0
M  V30 19 C 0.305147 -1.527715 1.189340 0 CFG=1
M  V30 20 C -0.698727 -2.536678 1.593660 0 CFG=2
M  V30 21 C -0.207419 -3.877128 2.001972 0
M  V30 22 C -1.505174 -4.686130 2.082245 0
M  V30 23 C -2.539572 -3.823707 1.409615 0
M  V30 24 O -3.741140 -3.921178 1.616176 0
M  V30 25 H -1.568865 -3.397811 -1.528474 0
M  V30 26 H -1.490998 -4.838336 -0.506541 0
M  V30 27 H -0.037843 -3.800825 -0.640440 0
M  V30 28 H -2.871736 -1.248847 0.969814 0
M  V30 29 H -3.222255 -1.936679 -0.663178 0
M  V30 30 H -0.836054 -1.345762 -1.277792 0
M  V30 31 H -1.865519 0.135981 -0.891553 0
M  V30 32 H -1.123321 0.024061 1.431242 0
M  V30 33 H -0.309908 1.228424 -1.631986 0
M  V30 34 H 1.335641 2.937534 -2.168404 0
M  V30 35 H 3.382738 5.891310 1.912731 0
M  V30 36 H 3.297224 2.183747 1.492920 0
M  V30 37 H 2.743042 0.094885 2.616499 0
M  V30 38 H 1.300468 0.963219 3.175733 0
M  V30 39 H 1.649136 -1.879395 2.823224 0
M  V30 40 H 0.184104 -0.995957 3.238004 0
M  V30 41 H 1.038880 -1.910970 0.451031 0
M  V30 42 H -1.293649 -2.124990 2.439417 0
M  V30 43 H 0.496863 -4.328138 1.262896 0
M  V30 44 H 0.307723 -3.819961 2.978719 0
M  V30 45 H -1.431503 -5.621310 1.522002 0
M  V30 46 H -1.714953 -4.805387 3.162956 0
M  V30 END ATOM
M  V30 BEGIN BOND
M  V30 1 1 2 1 CFG=3
M  V30 2 1 2 3
M  V30 3 1 3 4
M  V30 4 1 4 5
M  V30 5 1 5 6
M  V30 6 2 6 7
M  V30 7 1 7 8
M  V30 8 2 8 9
M  V30 9 1 9 10
M  V30 10 1 10 11
M  V30 11 2 11 12
M  V30 12 2 11 13
M  V30 13 1 11 14
M  V30 14 1 9 15
M  V30 15 2 15 16
M  V30 16 1 16 17
M  V30 17 1 17 18
M  V30 18 1 18 19
M  V30 19 1 19 20
M  V30 20 1 20 21
M  V30 21 1 21 22
M  V30 22 1 22 23
M  V30 23 2 23 24
M  V30 24 1 20 2
M  V30 25 1 23 2
M  V30 26 1 19 5
M  V30 27 1 16 6
M  V30 28 1 1 25
M  V30 29 1 1 26
M  V30 30 1 1 27
M  V30 31 1 3 28
M  V30 32 1 3 29
M  V30 33 1 4 30
M  V30 34 1 4 31
M  V30 35 1 5 32 CFG=1
M  V30 36 1 7 33
M  V30 37 1 8 34
M  V30 38 1 14 35
M  V30 39 1 15 36
M  V30 40 1 17 37
M  V30 41 1 17 38
M  V30 42 1 18 39
M  V30 43 1 18 40
M  V30 44 1 19 41 CFG=3
M  V30 45 1 20 42 CFG=1
M  V30 46 1 21 43
M  V30 47 1 21 44
M  V30 48 1 22 45
M  V30 49 1 22 46
M  V30 END BOND
M  V30 END CTAB
M  END
>  <Dataset>  (355) 
OralDrugs

>  <Ligand_Instance>  (355) 
nan

>  <PDB_ID>  (355) 
nan

>  <Standardized_SMILES>  (355) 
C[C@]12CC[C@@H]3c4ccc(OS(=O)(=O)O)cc4CC[C@H]3[C@@H]1CCC2=O

>  <Name>  (355) 
Estrone Sulfuric Acid

>  <Pocket>  (355) 
nan

>  <ATP_Site>  (355) 
nan

>  <Peripheral>  (355) 
nan

>  <Num_H_Atoms_ProtBoundConf>  (355) 
nan

>  <Num_Resolved_Atoms>  (355) 
nan

>  <Num_Not_Resolved_Atoms>  (355) 
nan

$$$$
CHEMBL1522
     RDKit          3D

  0  0  0  0  0  0  0  0  0  0999 V3000
M  V30 BEGIN CTAB
M  V30 COUNTS 44 47 0 0 0
M  V30 BEGIN ATOM
M  V30 1 C -1.553303 -3.739150 1.251110 0
M  V30 2 N -0.284599 -4.264362 0.782825 0
M  V30 3 C 0.034915 -3.800810 -0.516131 0
M  V30 4 C 1.020953 -2.696199 -0.615986 0
M  V30 5 N 1.566378 -2.313962 0.695712 0
M  V30 6 C 1.684495 -0.957553 1.170695 0
M  V30 7 O 2.169654 -0.700503 2.324944 0
M  V30 8 O 1.230189 -0.001397 0.269287 0
M  V30 9 C 1.307244 1.370294 0.652152 0 CFG=1
M  V30 10 C 2.180781 2.100750 -0.327357 0
M  V30 11 N 3.471681 1.857537 -0.610850 0
M  V30 12 C 4.145784 2.607160 -1.530316 0
M  V30 13 C 3.399500 3.610146 -2.125313 0
M  V30 14 N 2.088399 3.897230 -1.872640 0
M  V30 15 C 1.491678 3.114256 -0.953651 0
M  V30 16 C 0.118766 3.097939 -0.410203 0
M  V30 17 O -0.836705 3.845292 -0.699642 0
M  V30 18 N 0.018795 2.036972 0.561943 0
M  V30 19 C -1.080242 1.611672 1.359672 0
M  V30 20 C -1.253692 2.192359 2.619854 0
M  V30 21 C -2.349000 1.730347 3.348056 0
M  V30 22 C -3.207623 0.758364 2.851151 0
M  V30 23 Cl -4.576752 0.201532 3.797622 0
M  V30 24 C -2.977626 0.221498 1.588338 0
M  V30 25 N -1.918288 0.666360 0.880587 0
M  V30 26 C 1.971852 -3.487069 1.452490 0
M  V30 27 C 0.722268 -4.234080 1.770954 0
M  V30 28 H -1.393481 -3.351221 2.290127 0
M  V30 29 H -1.846251 -2.939799 0.566249 0
M  V30 30 H -2.260042 -4.597897 1.254078 0
M  V30 31 H 0.390627 -4.650777 -1.143956 0
M  V30 32 H -0.905660 -3.449435 -0.998869 0
M  V30 33 H 1.903142 -2.966305 -1.234341 0
M  V30 34 H 0.599549 -1.771982 -1.091324 0
M  V30 35 H 1.741733 1.476826 1.667224 0
M  V30 36 H 5.167033 2.497497 -1.827401 0
M  V30 37 H 3.845119 4.271542 -2.879087 0
M  V30 38 H -0.600648 2.944558 3.020442 0
M  V30 39 H -2.528651 2.152909 4.340063 0
M  V30 40 H -3.669901 -0.531752 1.240975 0
M  V30 41 H 2.583247 -4.153481 0.789975 0
M  V30 42 H 2.497769 -3.242688 2.391692 0
M  V30 43 H 0.997644 -5.285236 2.078131 0
M  V30 44 H 0.291156 -3.798201 2.698305 0
M  V30 END ATOM
M  V30 BEGIN BOND
M  V30 1 1 1 2
M  V30 2 1 2 3
M  V30 3 1 3 4
M  V30 4 1 4 5
M  V30 5 1 5 6
M  V30 6 2 6 7
M  V30 7 1 6 8
M  V30 8 1 8 9
M  V30 9 1 9 10
M  V30 10 2 10 11
M  V30 11 1 11 12
M  V30 12 2 12 13
M  V30 13 1 13 14
M  V30 14 2 14 15
M  V30 15 1 15 16
M  V30 16 2 16 17
M  V30 17 1 16 18
M  V30 18 1 18 19
M  V30 19 2 19 20
M  V30 20 1 20 21
M  V30 21 2 21 22
M  V30 22 1 22 23
M  V30 23 1 22 24
M  V30 24 2 24 25
M  V30 25 1 5 26
M  V30 26 1 26 27
M  V30 27 1 27 2
M  V30 28 1 18 9
M  V30 29 1 25 19
M  V30 30 1 15 10
M  V30 31 1 1 28
M  V30 32 1 1 29
M  V30 33 1 1 30
M  V30 34 1 3 31
M  V30 35 1 3 32
M  V30 36 1 4 33
M  V30 37 1 4 34
M  V30 38 1 9 35 CFG=1
M  V30 39 1 12 36
M  V30 40 1 13 37
M  V30 41 1 20 38
M  V30 42 1 21 39
M  V30 43 1 24 40
M  V30 44 1 26 41
M  V30 45 1 26 42
M  V30 46 1 27 43
M  V30 47 1 27 44
M  V30 END BOND
M  V30 END CTAB
M  END
>  <Dataset>  (356) 
OralDrugs

>  <Ligand_Instance>  (356) 
nan

>  <PDB_ID>  (356) 
nan

>  <Standardized_SMILES>  (356) 
CN1CCN(C(=O)O[C@H]2c3nccnc3C(=O)N2c2ccc(Cl)cn2)CC1

>  <Name>  (356) 
Eszopiclone

>  <Pocket>  (356) 
nan

>  <ATP_Site>  (356) 
nan

>  <Peripheral>  (356) 
nan

>  <Num_H_Atoms_ProtBoundConf>  (356) 
nan

>  <Num_Resolved_Atoms>  (356) 
nan

>  <Num_Not_Resolved_Atoms>  (356) 
nan

$$$$
CHEMBL456
     RDKit          3D

  0  0  0  0  0  0  0  0  0  0999 V3000
M  V30 BEGIN CTAB
M  V30 COUNTS 31 31 0 0 0
M  V30 BEGIN ATOM
M  V30 1 C 0.596154 -3.145736 -1.972431 0
M  V30 2 C -0.679604 -2.728629 -2.049794 0
M  V30 3 C -1.576029 -3.158483 -3.114878 0
M  V30 4 C -2.109712 -2.086013 -4.004695 0
M  V30 5 C -0.048190 -2.141785 -0.899728 0
M  V30 6 O 1.064168 -2.686317 -1.106239 0
M  V30 7 C -0.511067 -1.243638 0.136039 0
M  V30 8 C 0.551707 -0.990052 1.006664 0
M  V30 9 C 0.393611 -0.149620 2.101428 0
M  V30 10 C -0.835623 0.435666 2.318566 0
M  V30 11 O -1.190276 1.284942 3.331334 0
M  V30 12 C -0.304884 1.713238 4.342787 0
M  V30 13 C 0.833575 2.469783 3.749221 0
M  V30 14 O 1.013737 2.756118 2.521234 0
M  V30 15 O 1.882804 2.978777 4.480299 0
M  V30 16 C -1.873142 0.177834 1.455221 0
M  V30 17 Cl -3.483012 0.847199 1.607162 0
M  V30 18 C -1.734517 -0.653824 0.363646 0
M  V30 19 Cl -2.941800 -1.073618 -0.799143 0
M  V30 20 H 0.897820 -3.829812 -2.771983 0
M  V30 21 H 1.126504 -3.829808 -2.648581 0
M  V30 22 H -2.434230 -3.722479 -2.674907 0
M  V30 23 H -1.014545 -3.891714 -3.756378 0
M  V30 24 H -1.969718 -2.343971 -5.073259 0
M  V30 25 H -1.612547 -1.097223 -3.865037 0
M  V30 26 H -3.227975 -1.978890 -3.887538 0
M  V30 27 H 1.546135 -1.400811 0.917815 0
M  V30 28 H 1.173582 0.070041 2.800917 0
M  V30 29 H 0.133240 0.835220 4.894267 0
M  V30 30 H -0.826172 2.373671 5.048415 0
M  V30 31 H 2.204188 3.912007 4.317819 0
M  V30 END ATOM
M  V30 BEGIN BOND
M  V30 1 2 1 2
M  V30 2 1 2 3
M  V30 3 1 3 4
M  V30 4 1 2 5
M  V30 5 2 5 6
M  V30 6 1 5 7
M  V30 7 2 7 8
M  V30 8 1 8 9
M  V30 9 2 9 10
M  V30 10 1 10 11
M  V30 11 1 11 12
M  V30 12 1 12 13
M  V30 13 2 13 14
M  V30 14 1 13 15
M  V30 15 1 10 16
M  V30 16 1 16 17
M  V30 17 2 16 18
M  V30 18 1 18 19
M  V30 19 1 18 7
M  V30 20 1 1 20
M  V30 21 1 1 21
M  V30 22 1 3 22
M  V30 23 1 3 23
M  V30 24 1 4 24
M  V30 25 1 4 25
M  V30 26 1 4 26
M  V30 27 1 8 27
M  V30 28 1 9 28
M  V30 29 1 12 29
M  V30 30 1 12 30
M  V30 31 1 15 31
M  V30 END BOND
M  V30 END CTAB
M  END
>  <Dataset>  (357) 
OralDrugs

>  <Ligand_Instance>  (357) 
nan

>  <PDB_ID>  (357) 
nan

>  <Standardized_SMILES>  (357) 
C=C(CC)C(=O)c1ccc(OCC(=O)O)c(Cl)c1Cl

>  <Name>  (357) 
Ethacrynic Acid

>  <Pocket>  (357) 
nan

>  <ATP_Site>  (357) 
nan

>  <Peripheral>  (357) 
nan

>  <Num_H_Atoms_ProtBoundConf>  (357) 
nan

>  <Num_Resolved_Atoms>  (357) 
nan

>  <Num_Not_Resolved_Atoms>  (357) 
nan

$$$$
CHEMBL44884
     RDKit          3D

  0  0  0  0  0  0  0  0  0  0999 V3000
M  V30 BEGIN CTAB
M  V30 COUNTS 38 37 0 0 0
M  V30 BEGIN ATOM
M  V30 1 C -2.281210 -1.190655 3.122457 0
M  V30 2 C -1.378179 -2.105787 2.331255 0
M  V30 3 C 0.043930 -1.529775 2.463594 0 CFG=1
M  V30 4 C 0.307352 -1.576190 3.987558 0
M  V30 5 O 1.559384 -1.091424 4.283437 0
M  V30 6 N 0.997200 -2.300010 1.783664 0
M  V30 7 C 0.916645 -2.578581 0.427741 0
M  V30 8 C 1.140604 -1.557274 -0.618545 0
M  V30 9 N 0.306750 -0.410650 -0.652217 0
M  V30 10 C 0.479006 0.423658 -1.853132 0 CFG=1
M  V30 11 C -0.506894 1.543066 -1.808989 0
M  V30 12 C -0.407362 2.465702 -0.643635 0
M  V30 13 C 1.901832 0.895744 -1.972553 0
M  V30 14 O 2.216063 1.611998 -0.819343 0
M  V30 15 H -3.272958 -1.063935 2.634616 0
M  V30 16 H -2.343566 -1.538249 4.151760 0
M  V30 17 H -1.841215 -0.152724 3.142486 0
M  V30 18 H -1.726057 -2.111982 1.288357 0
M  V30 19 H -1.418679 -3.112461 2.821269 0
M  V30 20 H -0.044154 -0.494900 2.136924 0
M  V30 21 H 0.171144 -2.566560 4.407891 0
M  V30 22 H -0.450767 -0.875274 4.434388 0
M  V30 23 H 1.690339 -0.167356 3.918130 0
M  V30 24 H 1.719533 -2.767166 2.343348 0
M  V30 25 H 1.694677 -3.392404 0.212957 0
M  V30 26 H -0.040422 -3.133860 0.202794 0
M  V30 27 H 0.972207 -2.089779 -1.606387 0
M  V30 28 H 2.229721 -1.298192 -0.669784 0
M  V30 29 H 0.532840 0.279298 0.121522 0
M  V30 30 H 0.209075 -0.190729 -2.755421 0
M  V30 31 H -1.517600 1.071201 -1.786480 0
M  V30 32 H -0.474704 2.151298 -2.731762 0
M  V30 33 H -1.276113 3.186272 -0.715455 0
M  V30 34 H -0.553874 1.958804 0.326685 0
M  V30 35 H 0.482235 3.137019 -0.661668 0
M  V30 36 H 2.575668 0.030753 -2.042682 0
M  V30 37 H 1.998595 1.553444 -2.879016 0
M  V30 38 H 2.863674 1.166524 -0.243585 0
M  V30 END ATOM
M  V30 BEGIN BOND
M  V30 1 1 1 2
M  V30 2 1 2 3
M  V30 3 1 3 4
M  V30 4 1 4 5
M  V30 5 1 3 6
M  V30 6 1 6 7
M  V30 7 1 7 8
M  V30 8 1 8 9
M  V30 9 1 9 10
M  V30 10 1 10 11
M  V30 11 1 11 12
M  V30 12 1 10 13
M  V30 13 1 13 14
M  V30 14 1 1 15
M  V30 15 1 1 16
M  V30 16 1 1 17
M  V30 17 1 2 18
M  V30 18 1 2 19
M  V30 19 1 3 20 CFG=3
M  V30 20 1 4 21
M  V30 21 1 4 22
M  V30 22 1 5 23
M  V30 23 1 6 24
M  V30 24 1 7 25
M  V30 25 1 7 26
M  V30 26 1 8 27
M  V30 27 1 8 28
M  V30 28 1 9 29
M  V30 29 1 10 30 CFG=3
M  V30 30 1 11 31
M  V30 31 1 11 32
M  V30 32 1 12 33
M  V30 33 1 12 34
M  V30 34 1 12 35
M  V30 35 1 13 36
M  V30 36 1 13 37
M  V30 37 1 14 38
M  V30 END BOND
M  V30 END CTAB
M  END
>  <Dataset>  (358) 
OralDrugs

>  <Ligand_Instance>  (358) 
nan

>  <PDB_ID>  (358) 
nan

>  <Standardized_SMILES>  (358) 
CC[C@@H](CO)NCCN[C@@H](CC)CO

>  <Name>  (358) 
Ethambutol

>  <Pocket>  (358) 
nan

>  <ATP_Site>  (358) 
nan

>  <Peripheral>  (358) 
nan

>  <Num_H_Atoms_ProtBoundConf>  (358) 
nan

>  <Num_Resolved_Atoms>  (358) 
nan

>  <Num_Not_Resolved_Atoms>  (358) 
nan

$$$$
CHEMBL591
     RDKit          3D

  0  0  0  0  0  0  0  0  0  0999 V3000
M  V30 BEGIN CTAB
M  V30 COUNTS 18 17 0 0 0
M  V30 BEGIN ATOM
M  V30 1 C 0.762146 -1.254491 3.709166 0
M  V30 2 C 0.769613 -0.773337 2.603313 0
M  V30 3 C 0.753351 -0.185701 1.241464 0
M  V30 4 O -0.115983 -0.923126 0.436050 0
M  V30 5 C 2.103454 -0.308013 0.684081 0
M  V30 6 C 2.640921 -1.019296 -0.302997 0
M  V30 7 Cl 4.365340 -0.813796 -0.597182 0
M  V30 8 C 0.282412 1.237683 1.273517 0
M  V30 9 C 0.283651 1.786287 -0.124032 0
M  V30 10 H 0.741276 -1.669467 4.692838 0
M  V30 11 H -0.016628 -1.879176 0.744023 0
M  V30 12 H 2.719597 0.380084 1.288820 0
M  V30 13 H 1.846435 -1.627752 -0.760800 0
M  V30 14 H 0.909349 1.862468 1.943137 0
M  V30 15 H -0.758128 1.291015 1.639279 0
M  V30 16 H -0.733854 2.074950 -0.476436 0
M  V30 17 H 1.011160 2.638487 -0.210023 0
M  V30 18 H 0.623863 1.006573 -0.824760 0
M  V30 END ATOM
M  V30 BEGIN BOND
M  V30 1 3 1 2
M  V30 2 1 2 3
M  V30 3 1 3 4
M  V30 4 1 3 5
M  V30 5 2 5 6
M  V30 6 1 6 7
M  V30 7 1 3 8
M  V30 8 1 8 9
M  V30 9 1 1 10
M  V30 10 1 4 11
M  V30 11 1 5 12
M  V30 12 1 6 13
M  V30 13 1 8 14
M  V30 14 1 8 15
M  V30 15 1 9 16
M  V30 16 1 9 17
M  V30 17 1 9 18
M  V30 END BOND
M  V30 END CTAB
M  END
>  <Dataset>  (359) 
OralDrugs

>  <Ligand_Instance>  (359) 
nan

>  <PDB_ID>  (359) 
nan

>  <Standardized_SMILES>  (359) 
C#CC(O)(/C=C/Cl)CC

>  <Name>  (359) 
Ethchlorvynol

>  <Pocket>  (359) 
nan

>  <ATP_Site>  (359) 
nan

>  <Peripheral>  (359) 
nan

>  <Num_H_Atoms_ProtBoundConf>  (359) 
nan

>  <Num_Resolved_Atoms>  (359) 
nan

>  <Num_Not_Resolved_Atoms>  (359) 
nan

$$$$
CHEMBL1576
     RDKit          3D

  0  0  0  0  0  0  0  0  0  0999 V3000
M  V30 BEGIN CTAB
M  V30 COUNTS 25 25 0 0 0
M  V30 BEGIN ATOM
M  V30 1 C -2.333204 0.797740 2.156655 0
M  V30 2 C -1.228435 0.419339 1.813095 0
M  V30 3 C 0.109246 -0.060498 1.390830 0
M  V30 4 O 0.850032 -0.169643 2.565508 0
M  V30 5 C 2.147529 -0.573875 2.706800 0
M  V30 6 N 2.665098 -0.593983 4.032510 0
M  V30 7 O 2.805922 -0.897765 1.710411 0
M  V30 8 C 0.672262 0.822438 0.330669 0
M  V30 9 C 1.035293 0.090307 -0.953665 0
M  V30 10 C -0.212523 -0.527931 -1.517247 0
M  V30 11 C -1.086200 -1.138603 -0.432870 0
M  V30 12 C -0.153654 -1.426642 0.743450 0
M  V30 13 H -3.300386 1.115810 2.443366 0
M  V30 14 H 3.273638 0.244425 4.134734 0
M  V30 15 H 2.443286 -1.346352 4.750194 0
M  V30 16 H -0.139493 1.534098 -0.007006 0
M  V30 17 H 1.477177 1.511067 0.675014 0
M  V30 18 H 1.363734 0.886895 -1.668409 0
M  V30 19 H 1.836835 -0.639253 -0.850176 0
M  V30 20 H 0.006588 -1.299686 -2.284603 0
M  V30 21 H -0.804679 0.271886 -2.002125 0
M  V30 22 H -1.613412 -2.028988 -0.773724 0
M  V30 23 H -1.827824 -0.407912 -0.056170 0
M  V30 24 H -0.669034 -2.057915 1.502731 0
M  V30 25 H 0.767652 -1.929592 0.419992 0
M  V30 END ATOM
M  V30 BEGIN BOND
M  V30 1 3 1 2
M  V30 2 1 2 3
M  V30 3 1 3 4
M  V30 4 1 4 5
M  V30 5 1 5 6
M  V30 6 2 5 7
M  V30 7 1 3 8
M  V30 8 1 8 9
M  V30 9 1 9 10
M  V30 10 1 10 11
M  V30 11 1 11 12
M  V30 12 1 12 3
M  V30 13 1 1 13
M  V30 14 1 6 14
M  V30 15 1 6 15
M  V30 16 1 8 16
M  V30 17 1 8 17
M  V30 18 1 9 18
M  V30 19 1 9 19
M  V30 20 1 10 20
M  V30 21 1 10 21
M  V30 22 1 11 22
M  V30 23 1 11 23
M  V30 24 1 12 24
M  V30 25 1 12 25
M  V30 END BOND
M  V30 END CTAB
M  END
>  <Dataset>  (360) 
OralDrugs

>  <Ligand_Instance>  (360) 
nan

>  <PDB_ID>  (360) 
nan

>  <Standardized_SMILES>  (360) 
C#CC1(OC(N)=O)CCCCC1

>  <Name>  (360) 
Ethinamate

>  <Pocket>  (360) 
nan

>  <ATP_Site>  (360) 
nan

>  <Peripheral>  (360) 
nan

>  <Num_H_Atoms_ProtBoundConf>  (360) 
nan

>  <Num_Resolved_Atoms>  (360) 
nan

>  <Num_Not_Resolved_Atoms>  (360) 
nan

$$$$
CHEMBL1206
     RDKit          3D

  0  0  0  0  0  0  0  0  0  0999 V3000
M  V30 BEGIN CTAB
M  V30 COUNTS 46 48 0 0 0
M  V30 BEGIN ATOM
M  V30 1 C -0.427723 -4.287525 0.328487 0
M  V30 2 C 0.879989 -3.642478 0.101383 0
M  V30 3 N 0.883661 -2.168368 0.262808 0
M  V30 4 C 0.057766 -1.734298 -0.840013 0
M  V30 5 C 0.758523 -1.984444 -2.158507 0
M  V30 6 C 0.485586 -1.868180 1.565148 0
M  V30 7 C 1.341664 -2.832829 2.462336 0
M  V30 8 C 0.764049 -0.554719 2.192735 0
M  V30 9 N 0.269804 0.650371 1.606037 0
M  V30 10 C 1.031528 1.296514 0.589958 0
M  V30 11 C 2.241806 0.776882 0.179256 0
M  V30 12 C 3.046690 1.339352 -0.798729 0
M  V30 13 C 2.639507 2.495625 -1.422222 0
M  V30 14 C 1.422479 3.048787 -1.032696 0
M  V30 15 C 0.700004 2.440034 -0.074189 0
M  V30 16 S -0.824620 3.275683 0.314510 0
M  V30 17 C -1.567792 2.294202 1.571608 0
M  V30 18 C -2.765037 2.777477 1.993801 0
M  V30 19 C -3.487616 2.111213 2.984418 0
M  V30 20 C -2.909771 0.947355 3.495274 0
M  V30 21 C -1.689331 0.520550 3.014341 0
M  V30 22 C -0.965499 1.170733 2.035841 0
M  V30 23 H -1.285016 -3.665610 0.563973 0
M  V30 24 H -0.435444 -5.106523 1.108650 0
M  V30 25 H -0.712684 -4.877122 -0.603192 0
M  V30 26 H 1.247765 -3.873227 -0.945080 0
M  V30 27 H 1.645019 -4.124859 0.743567 0
M  V30 28 H -0.251231 -0.688553 -0.843287 0
M  V30 29 H -0.889966 -2.319963 -0.904747 0
M  V30 30 H 0.371000 -1.243359 -2.907978 0
M  V30 31 H 0.517450 -2.967072 -2.610616 0
M  V30 32 H 1.847100 -1.792992 -2.110112 0
M  V30 33 H -0.538341 -2.251163 1.753993 0
M  V30 34 H 1.394254 -2.407274 3.499634 0
M  V30 35 H 0.868289 -3.798126 2.579424 0
M  V30 36 H 2.384640 -2.818669 2.107133 0
M  V30 37 H 0.478346 -0.683714 3.285414 0
M  V30 38 H 1.903129 -0.475910 2.350671 0
M  V30 39 H 2.679891 -0.109454 0.576777 0
M  V30 40 H 3.995790 0.934721 -1.123119 0
M  V30 41 H 3.245375 2.954651 -2.185821 0
M  V30 42 H 1.150900 3.956611 -1.554231 0
M  V30 43 H -3.264483 3.683830 1.628113 0
M  V30 44 H -4.440625 2.468387 3.342101 0
M  V30 45 H -3.503745 0.460608 4.263066 0
M  V30 46 H -1.404788 -0.373624 3.501981 0
M  V30 END ATOM
M  V30 BEGIN BOND
M  V30 1 1 1 2
M  V30 2 1 2 3
M  V30 3 1 3 4
M  V30 4 1 4 5
M  V30 5 1 3 6
M  V30 6 1 6 7
M  V30 7 1 6 8
M  V30 8 1 8 9
M  V30 9 1 9 10
M  V30 10 2 10 11
M  V30 11 1 11 12
M  V30 12 2 12 13
M  V30 13 1 13 14
M  V30 14 2 14 15
M  V30 15 1 15 16
M  V30 16 1 16 17
M  V30 17 2 17 18
M  V30 18 1 18 19
M  V30 19 2 19 20
M  V30 20 1 20 21
M  V30 21 2 21 22
M  V30 22 1 22 9
M  V30 23 1 15 10
M  V30 24 1 22 17
M  V30 25 1 1 23
M  V30 26 1 1 24
M  V30 27 1 1 25
M  V30 28 1 2 26
M  V30 29 1 2 27
M  V30 30 1 4 28
M  V30 31 1 4 29
M  V30 32 1 5 30
M  V30 33 1 5 31
M  V30 34 1 5 32
M  V30 35 1 6 33
M  V30 36 1 7 34
M  V30 37 1 7 35
M  V30 38 1 7 36
M  V30 39 1 8 37
M  V30 40 1 8 38
M  V30 41 1 11 39
M  V30 42 1 12 40
M  V30 43 1 13 41
M  V30 44 1 14 42
M  V30 45 1 18 43
M  V30 46 1 19 44
M  V30 47 1 20 45
M  V30 48 1 21 46
M  V30 END BOND
M  V30 END CTAB
M  END
>  <Dataset>  (361) 
OralDrugs

>  <Ligand_Instance>  (361) 
nan

>  <PDB_ID>  (361) 
nan

>  <Standardized_SMILES>  (361) 
CCN(CC)C(C)CN1c2ccccc2Sc2ccccc21

>  <Name>  (361) 
Ethopropazine

>  <Pocket>  (361) 
nan

>  <ATP_Site>  (361) 
nan

>  <Peripheral>  (361) 
nan

>  <Num_H_Atoms_ProtBoundConf>  (361) 
nan

>  <Num_Resolved_Atoms>  (361) 
nan

>  <Num_Not_Resolved_Atoms>  (361) 
nan

$$$$
CHEMBL696
     RDKit          3D

  0  0  0  0  0  0  0  0  0  0999 V3000
M  V30 BEGIN CTAB
M  V30 COUNTS 21 21 0 0 0
M  V30 BEGIN ATOM
M  V30 1 C -0.957937 1.807356 0.586171 0
M  V30 2 C 0.371124 1.345902 1.080552 0
M  V30 3 C 0.822923 0.015990 0.549512 0
M  V30 4 C 0.956916 -0.031836 -0.938496 0
M  V30 5 C -0.011360 -1.111703 1.058935 0
M  V30 6 C 0.851026 -1.924917 1.945451 0
M  V30 7 O 0.588938 -3.038712 2.424418 0
M  V30 8 N 2.053479 -1.234648 2.178442 0
M  V30 9 C 2.174466 -0.244153 1.141878 0
M  V30 10 O 3.157626 0.401395 0.675577 0
M  V30 11 H -0.872408 2.491293 -0.303800 0
M  V30 12 H -1.396552 2.468880 1.381059 0
M  V30 13 H -1.700786 1.001242 0.425031 0
M  V30 14 H 1.114262 2.133715 0.923144 0
M  V30 15 H 0.298270 1.222335 2.194934 0
M  V30 16 H 1.928995 0.418148 -1.262889 0
M  V30 17 H 0.130415 0.407308 -1.503964 0
M  V30 18 H 1.022847 -1.115137 -1.210190 0
M  V30 19 H -0.445537 -1.717441 0.230924 0
M  V30 20 H -0.834708 -0.692617 1.684061 0
M  V30 21 H 2.795840 -1.317238 2.907806 0
M  V30 END ATOM
M  V30 BEGIN BOND
M  V30 1 1 1 2
M  V30 2 1 2 3
M  V30 3 1 3 4
M  V30 4 1 3 5
M  V30 5 1 5 6
M  V30 6 2 6 7
M  V30 7 1 6 8
M  V30 8 1 8 9
M  V30 9 2 9 10
M  V30 10 1 9 3
M  V30 11 1 1 11
M  V30 12 1 1 12
M  V30 13 1 1 13
M  V30 14 1 2 14
M  V30 15 1 2 15
M  V30 16 1 4 16
M  V30 17 1 4 17
M  V30 18 1 4 18
M  V30 19 1 5 19
M  V30 20 1 5 20
M  V30 21 1 8 21
M  V30 END BOND
M  V30 END CTAB
M  END
>  <Dataset>  (362) 
OralDrugs

>  <Ligand_Instance>  (362) 
nan

>  <PDB_ID>  (362) 
nan

>  <Standardized_SMILES>  (362) 
CCC1(C)CC(=O)NC1=O

>  <Name>  (362) 
Ethosuximide

>  <Pocket>  (362) 
nan

>  <ATP_Site>  (362) 
nan

>  <Peripheral>  (362) 
nan

>  <Num_H_Atoms_ProtBoundConf>  (362) 
nan

>  <Num_Resolved_Atoms>  (362) 
nan

>  <Num_Not_Resolved_Atoms>  (362) 
nan

$$$$
CHEMBL1095
     RDKit          3D

  0  0  0  0  0  0  0  0  0  0999 V3000
M  V30 BEGIN CTAB
M  V30 COUNTS 27 28 0 0 0
M  V30 BEGIN ATOM
M  V30 1 C -1.012857 -2.498772 1.724535 0
M  V30 2 C -0.402851 -1.733751 2.885633 0
M  V30 3 N 0.374036 -0.594658 2.428043 0
M  V30 4 C 1.780996 -0.678398 2.122023 0
M  V30 5 O 2.525241 -1.703267 2.198908 0
M  V30 6 N 2.174204 0.630402 1.712123 0
M  V30 7 C 0.977628 1.243402 1.169640 0
M  V30 8 C 0.601792 0.546590 -0.099870 0
M  V30 9 C 1.476709 0.205149 -1.101064 0
M  V30 10 C 1.033253 -0.438120 -2.238471 0
M  V30 11 C -0.306532 -0.768511 -2.424578 0
M  V30 12 C -1.219431 -0.444713 -1.445336 0
M  V30 13 C -0.732486 0.194580 -0.331508 0
M  V30 14 C -0.028270 0.771074 2.188832 0
M  V30 15 O -1.020213 1.250399 2.800655 0
M  V30 16 H -0.241584 -2.511938 0.924817 0
M  V30 17 H -1.872544 -1.907045 1.346009 0
M  V30 18 H -1.267127 -3.514408 2.040926 0
M  V30 19 H 0.250321 -2.412463 3.432453 0
M  V30 20 H -1.221576 -1.435820 3.574257 0
M  V30 21 H 3.135287 1.040289 1.796458 0
M  V30 22 H 1.021520 2.327183 1.087048 0
M  V30 23 H 2.520006 0.459813 -0.961367 0
M  V30 24 H 1.723378 -0.711082 -3.035558 0
M  V30 25 H -0.699899 -1.272974 -3.300220 0
M  V30 26 H -2.294698 -0.652170 -1.478431 0
M  V30 27 H -1.428644 0.464849 0.462279 0
M  V30 END ATOM
M  V30 BEGIN BOND
M  V30 1 1 1 2
M  V30 2 1 2 3
M  V30 3 1 3 4
M  V30 4 2 4 5
M  V30 5 1 4 6
M  V30 6 1 6 7
M  V30 7 1 7 8
M  V30 8 2 8 9
M  V30 9 1 9 10
M  V30 10 2 10 11
M  V30 11 1 11 12
M  V30 12 2 12 13
M  V30 13 1 7 14
M  V30 14 2 14 15
M  V30 15 1 14 3
M  V30 16 1 13 8
M  V30 17 1 1 16
M  V30 18 1 1 17
M  V30 19 1 1 18
M  V30 20 1 2 19
M  V30 21 1 2 20
M  V30 22 1 6 21
M  V30 23 1 7 22
M  V30 24 1 9 23
M  V30 25 1 10 24
M  V30 26 1 11 25
M  V30 27 1 12 26
M  V30 28 1 13 27
M  V30 END BOND
M  V30 END CTAB
M  END
>  <Dataset>  (363) 
OralDrugs

>  <Ligand_Instance>  (363) 
nan

>  <PDB_ID>  (363) 
nan

>  <Standardized_SMILES>  (363) 
CCN1C(=O)NC(c2ccccc2)C1=O

>  <Name>  (363) 
Ethotoin

>  <Pocket>  (363) 
nan

>  <ATP_Site>  (363) 
nan

>  <Peripheral>  (363) 
nan

>  <Num_H_Atoms_ProtBoundConf>  (363) 
nan

>  <Num_Resolved_Atoms>  (363) 
nan

>  <Num_Not_Resolved_Atoms>  (363) 
nan

$$$$
CHEMBL18
     RDKit          3D

  0  0  0  0  0  0  0  0  0  0999 V3000
M  V30 BEGIN CTAB
M  V30 COUNTS 26 27 0 0 0
M  V30 BEGIN ATOM
M  V30 1 C -1.390651 -3.942682 1.679108 0
M  V30 2 C -0.108317 -3.991673 2.469374 0
M  V30 3 O 0.163411 -2.785289 3.131116 0
M  V30 4 C 0.352660 -1.624263 2.431266 0
M  V30 5 C 0.611377 -0.412964 3.085002 0
M  V30 6 C 0.816477 0.798054 2.499946 0
M  V30 7 C 0.772116 0.882201 1.104005 0
M  V30 8 N 0.940803 1.945004 0.332774 0
M  V30 9 C 0.898775 1.991693 -0.844515 0
M  V30 10 S 1.049725 3.081131 -2.200076 0
M  V30 11 N -0.496560 3.775531 -2.597021 0
M  V30 12 O 1.971829 4.223640 -1.882531 0
M  V30 13 O 1.644733 2.395201 -3.397404 0
M  V30 14 S 0.534979 0.182747 -1.305267 0
M  V30 15 C 0.511082 -0.344482 0.460015 0
M  V30 16 C 0.302389 -1.579519 1.063419 0
M  V30 17 H -1.846641 -2.939974 1.611116 0
M  V30 18 H -1.259893 -4.320962 0.645923 0
M  V30 19 H -2.111578 -4.672478 2.154363 0
M  V30 20 H -0.103947 -4.866616 3.157994 0
M  V30 21 H 0.716417 -4.097441 1.704786 0
M  V30 22 H 0.648315 -0.469141 4.186450 0
M  V30 23 H 1.007883 1.659235 3.137125 0
M  V30 24 H -1.163902 3.493831 -1.847582 0
M  V30 25 H -0.808860 3.295524 -3.471049 0
M  V30 26 H 0.123335 -2.413238 0.409808 0
M  V30 END ATOM
M  V30 BEGIN BOND
M  V30 1 1 1 2
M  V30 2 1 2 3
M  V30 3 1 3 4
M  V30 4 2 4 5
M  V30 5 1 5 6
M  V30 6 2 6 7
M  V30 7 1 7 8
M  V30 8 2 8 9
M  V30 9 1 9 10
M  V30 10 1 10 11
M  V30 11 2 10 12
M  V30 12 2 10 13
M  V30 13 1 9 14
M  V30 14 1 14 15
M  V30 15 2 15 16
M  V30 16 1 16 4
M  V30 17 1 15 7
M  V30 18 1 1 17
M  V30 19 1 1 18
M  V30 20 1 1 19
M  V30 21 1 2 20
M  V30 22 1 2 21
M  V30 23 1 5 22
M  V30 24 1 6 23
M  V30 25 1 11 24
M  V30 26 1 11 25
M  V30 27 1 16 26
M  V30 END BOND
M  V30 END CTAB
M  END
>  <Dataset>  (364) 
OralDrugs

>  <Ligand_Instance>  (364) 
nan

>  <PDB_ID>  (364) 
nan

>  <Standardized_SMILES>  (364) 
CCOc1ccc2nc(S(N)(=O)=O)sc2c1

>  <Name>  (364) 
Ethoxzolamide

>  <Pocket>  (364) 
nan

>  <ATP_Site>  (364) 
nan

>  <Peripheral>  (364) 
nan

>  <Num_H_Atoms_ProtBoundConf>  (364) 
nan

>  <Num_Resolved_Atoms>  (364) 
nan

>  <Num_Not_Resolved_Atoms>  (364) 
nan

$$$$
CHEMBL1200623
     RDKit          3D

  0  0  0  0  0  0  0  0  0  0999 V3000
M  V30 BEGIN CTAB
M  V30 COUNTS 53 56 0 0 0
M  V30 BEGIN ATOM
M  V30 1 C -3.177355 -3.587350 3.625652 0
M  V30 2 C -2.903235 -2.523078 2.554870 0
M  V30 3 C -1.681389 -2.969939 1.809870 0 CFG=2
M  V30 4 O -2.003071 -4.221892 1.253543 0
M  V30 5 C -0.512252 -3.225814 2.761730 0
M  V30 6 C 0.684587 -2.785692 1.902840 0
M  V30 7 C 0.101903 -1.545022 1.339160 0 CFG=1
M  V30 8 C 0.820017 -0.909440 0.216262 0 CFG=2
M  V30 9 C 2.279186 -0.690317 0.393090 0
M  V30 10 C 2.787895 -0.100355 -0.920079 0
M  V30 11 C 2.201584 1.291307 -0.947350 0
M  V30 12 C 3.030774 2.312345 -0.850578 0
M  V30 13 C 2.417618 3.684076 -0.880686 0
M  V30 14 C 1.051589 3.587758 -0.232778 0
M  V30 15 C 0.186953 2.634350 -1.036975 0
M  V30 16 C 0.720524 1.236573 -1.085810 0 CFG=2
M  V30 17 C 0.066170 0.400202 -0.024425 0 CFG=1
M  V30 18 C -1.359148 0.113736 -0.407759 0
M  V30 19 C -2.044534 -0.869031 0.477670 0
M  V30 20 C -1.209367 -2.070772 0.736498 0 CFG=2
M  V30 21 C -0.990652 -2.828430 -0.541242 0
M  V30 22 H -3.610830 -3.060795 4.499352 0
M  V30 23 H -2.265566 -4.117612 3.937054 0
M  V30 24 H -3.919151 -4.335147 3.272872 0
M  V30 25 H -2.810696 -1.523551 3.025658 0
M  V30 26 H -3.756376 -2.537519 1.874807 0
M  V30 27 H -1.495634 -4.967237 1.654972 0
M  V30 28 H -0.421506 -4.263096 3.076551 0
M  V30 29 H -0.550641 -2.481319 3.600294 0
M  V30 30 H 1.597278 -2.671195 2.505432 0
M  V30 31 H 0.846180 -3.605381 1.203307 0
M  V30 32 H -0.142805 -0.852312 2.140460 0
M  V30 33 H 0.681906 -1.484381 -0.735333 0
M  V30 34 H 2.525705 0.040198 1.177993 0
M  V30 35 H 2.743313 -1.666546 0.612365 0
M  V30 36 H 2.390943 -0.653132 -1.771914 0
M  V30 37 H 3.893498 -0.078793 -0.931327 0
M  V30 38 H 4.093044 2.115460 -0.755937 0
M  V30 39 H 3.047077 4.318473 -0.214506 0
M  V30 40 H 2.360182 4.118304 -1.878875 0
M  V30 41 H 1.123991 3.342215 0.828656 0
M  V30 42 H 0.576912 4.581869 -0.319730 0
M  V30 43 H -0.830342 2.742094 -0.646909 0
M  V30 44 H 0.147736 3.092927 -2.068495 0
M  V30 45 H 0.427686 0.824242 -2.084288 0
M  V30 46 H 0.090988 0.965772 0.926457 0
M  V30 47 H -1.938928 1.058677 -0.345263 0
M  V30 48 H -1.393488 -0.179709 -1.494232 0
M  V30 49 H -3.030132 -1.094889 0.031843 0
M  V30 50 H -2.266736 -0.353805 1.445158 0
M  V30 51 H -1.814794 -3.595478 -0.582520 0
M  V30 52 H -1.116734 -2.231545 -1.449577 0
M  V30 53 H -0.063812 -3.393985 -0.610223 0
M  V30 END ATOM
M  V30 BEGIN BOND
M  V30 1 1 1 2
M  V30 2 1 2 3
M  V30 3 1 3 4 CFG=3
M  V30 4 1 3 5
M  V30 5 1 5 6
M  V30 6 1 6 7
M  V30 7 1 7 8
M  V30 8 1 8 9
M  V30 9 1 9 10
M  V30 10 1 10 11
M  V30 11 2 11 12
M  V30 12 1 12 13
M  V30 13 1 13 14
M  V30 14 1 14 15
M  V30 15 1 15 16
M  V30 16 1 16 17
M  V30 17 1 17 18
M  V30 18 1 18 19
M  V30 19 1 19 20
M  V30 20 1 20 21 CFG=3
M  V30 21 1 20 3
M  V30 22 1 20 7
M  V30 23 1 17 8
M  V30 24 1 16 11
M  V30 25 1 1 22
M  V30 26 1 1 23
M  V30 27 1 1 24
M  V30 28 1 2 25
M  V30 29 1 2 26
M  V30 30 1 4 27
M  V30 31 1 5 28
M  V30 32 1 5 29
M  V30 33 1 6 30
M  V30 34 1 6 31
M  V30 35 1 7 32 CFG=1
M  V30 36 1 8 33 CFG=3
M  V30 37 1 9 34
M  V30 38 1 9 35
M  V30 39 1 10 36
M  V30 40 1 10 37
M  V30 41 1 12 38
M  V30 42 1 13 39
M  V30 43 1 13 40
M  V30 44 1 14 41
M  V30 45 1 14 42
M  V30 46 1 15 43
M  V30 47 1 15 44
M  V30 48 1 16 45 CFG=3
M  V30 49 1 17 46 CFG=1
M  V30 50 1 18 47
M  V30 51 1 18 48
M  V30 52 1 19 49
M  V30 53 1 19 50
M  V30 54 1 21 51
M  V30 55 1 21 52
M  V30 56 1 21 53
M  V30 END BOND
M  V30 END CTAB
M  END
>  <Dataset>  (365) 
OralDrugs

>  <Ligand_Instance>  (365) 
nan

>  <PDB_ID>  (365) 
nan

>  <Standardized_SMILES>  (365) 
CC[C@]1(O)CC[C@H]2[C@@H]3CCC4=CCCC[C@@H]4[C@H]3CC[C@@]21C

>  <Name>  (365) 
Ethylestrenol

>  <Pocket>  (365) 
nan

>  <ATP_Site>  (365) 
nan

>  <Peripheral>  (365) 
nan

>  <Num_H_Atoms_ProtBoundConf>  (365) 
nan

>  <Num_Resolved_Atoms>  (365) 
nan

>  <Num_Not_Resolved_Atoms>  (365) 
nan

$$$$
CHEMBL1201042
     RDKit          3D

  0  0  0  0  0  0  0  0  0  0999 V3000
M  V30 BEGIN CTAB
M  V30 COUNTS 19 18 0 0 0
M  V30 BEGIN ATOM
M  V30 1 C 0.365624 1.215800 2.192580 0
M  V30 2 C 0.654911 -0.082394 1.480764 0
M  V30 3 O 0.547659 -1.115825 2.424782 0
M  V30 4 P 2.371684 -0.048428 0.942224 0
M  V30 5 O 3.248786 0.572010 1.999306 0
M  V30 6 O 2.917346 -1.586219 0.492352 0
M  V30 7 O 2.475303 0.932048 -0.427055 0
M  V30 8 P -0.475094 -0.390964 0.117383 0
M  V30 9 O -1.887281 -0.083669 0.516554 0
M  V30 10 O -0.403703 -2.028669 -0.315000 0
M  V30 11 O -0.024359 0.494088 -1.259475 0
M  V30 12 H -0.745306 1.328576 2.201096 0
M  V30 13 H 0.713948 1.156866 3.244688 0
M  V30 14 H 0.815030 2.054439 1.641457 0
M  V30 15 H -0.378483 -1.061909 2.770297 0
M  V30 16 H 3.733746 -1.836733 1.008135 0
M  V30 17 H 1.974740 1.766137 -0.309547 0
M  V30 18 H 0.532873 -2.186437 -0.602633 0
M  V30 19 H -0.638925 0.192909 -1.986981 0
M  V30 END ATOM
M  V30 BEGIN BOND
M  V30 1 1 1 2
M  V30 2 1 2 3
M  V30 3 1 2 4
M  V30 4 2 4 5
M  V30 5 1 4 6
M  V30 6 1 4 7
M  V30 7 1 2 8
M  V30 8 2 8 9
M  V30 9 1 8 10
M  V30 10 1 8 11
M  V30 11 1 1 12
M  V30 12 1 1 13
M  V30 13 1 1 14
M  V30 14 1 3 15
M  V30 15 1 6 16
M  V30 16 1 7 17
M  V30 17 1 10 18
M  V30 18 1 11 19
M  V30 END BOND
M  V30 END CTAB
M  END
>  <Dataset>  (366) 
OralDrugs

>  <Ligand_Instance>  (366) 
nan

>  <PDB_ID>  (366) 
nan

>  <Standardized_SMILES>  (366) 
CC(O)(P(=O)(O)O)P(=O)(O)O

>  <Name>  (366) 
Etidronate Disodium

>  <Pocket>  (366) 
nan

>  <ATP_Site>  (366) 
nan

>  <Peripheral>  (366) 
nan

>  <Num_H_Atoms_ProtBoundConf>  (366) 
nan

>  <Num_Resolved_Atoms>  (366) 
nan

>  <Num_Not_Resolved_Atoms>  (366) 
nan

$$$$
CHEMBL622
     RDKit          3D

  0  0  0  0  0  0  0  0  0  0999 V3000
M  V30 BEGIN CTAB
M  V30 COUNTS 42 44 0 0 0
M  V30 BEGIN ATOM
M  V30 1 C -1.446475 -4.092533 1.480881 0
M  V30 2 C -0.647240 -4.233934 0.211492 0
M  V30 3 C 0.705383 -3.651669 0.525387 0
M  V30 4 C 1.776572 -4.488809 0.755502 0
M  V30 5 C 3.026716 -3.990108 1.047248 0
M  V30 6 C 3.158631 -2.618768 1.099088 0
M  V30 7 C 2.108805 -1.752917 0.873928 0
M  V30 8 C 1.936728 -0.379228 0.854130 0
M  V30 9 C 0.607100 -0.050544 0.555284 0
M  V30 10 N 0.052847 -1.259665 0.412001 0
M  V30 11 C 0.881806 -2.292388 0.586658 0
M  V30 12 C 0.302839 1.394501 0.494570 0
M  V30 13 C -0.200254 1.692146 -0.944697 0
M  V30 14 C -0.514617 3.172820 -1.025770 0
M  V30 15 C -0.681020 1.896753 1.494891 0
M  V30 16 C -2.026001 1.332501 1.444989 0
M  V30 17 O -2.678887 1.840761 2.424046 0
M  V30 18 O -2.813196 0.459721 0.717992 0
M  V30 19 O 1.440032 2.188076 0.605890 0
M  V30 20 C 2.276384 1.833120 1.652648 0
M  V30 21 C 3.042722 0.612087 1.120802 0
M  V30 22 H -2.529027 -4.192370 1.295330 0
M  V30 23 H -1.233189 -3.104203 1.925086 0
M  V30 24 H -1.043537 -4.851474 2.196951 0
M  V30 25 H -0.552390 -5.308949 -0.013191 0
M  V30 26 H -1.064233 -3.676193 -0.627301 0
M  V30 27 H 1.689025 -5.565544 0.718604 0
M  V30 28 H 3.919786 -4.594119 1.238696 0
M  V30 29 H 4.134360 -2.208912 1.327295 0
M  V30 30 H -0.948959 -1.397810 0.179665 0
M  V30 31 H 0.669326 1.489715 -1.595109 0
M  V30 32 H -1.042372 1.056788 -1.204725 0
M  V30 33 H -0.442676 3.534106 -2.077203 0
M  V30 34 H -1.473360 3.432576 -0.548311 0
M  V30 35 H 0.278442 3.743686 -0.463021 0
M  V30 36 H -0.767967 3.020506 1.389822 0
M  V30 37 H -0.226804 1.789712 2.524959 0
M  V30 38 H -3.771510 0.252292 0.942683 0
M  V30 39 H 1.756399 1.454957 2.553922 0
M  V30 40 H 2.978062 2.643605 1.901456 0
M  V30 41 H 3.753107 0.240594 1.855977 0
M  V30 42 H 3.473535 0.836567 0.123166 0
M  V30 END ATOM
M  V30 BEGIN BOND
M  V30 1 1 1 2
M  V30 2 1 2 3
M  V30 3 2 3 4
M  V30 4 1 4 5
M  V30 5 2 5 6
M  V30 6 1 6 7
M  V30 7 1 7 8
M  V30 8 2 8 9
M  V30 9 1 9 10
M  V30 10 1 10 11
M  V30 11 1 9 12
M  V30 12 1 12 13
M  V30 13 1 13 14
M  V30 14 1 12 15
M  V30 15 1 15 16
M  V30 16 2 16 17
M  V30 17 1 16 18
M  V30 18 1 12 19
M  V30 19 1 19 20
M  V30 20 1 20 21
M  V30 21 1 11 3
M  V30 22 2 11 7
M  V30 23 1 21 8
M  V30 24 1 1 22
M  V30 25 1 1 23
M  V30 26 1 1 24
M  V30 27 1 2 25
M  V30 28 1 2 26
M  V30 29 1 4 27
M  V30 30 1 5 28
M  V30 31 1 6 29
M  V30 32 1 10 30
M  V30 33 1 13 31
M  V30 34 1 13 32
M  V30 35 1 14 33
M  V30 36 1 14 34
M  V30 37 1 14 35
M  V30 38 1 15 36
M  V30 39 1 15 37
M  V30 40 1 18 38
M  V30 41 1 20 39
M  V30 42 1 20 40
M  V30 43 1 21 41
M  V30 44 1 21 42
M  V30 END BOND
M  V30 END CTAB
M  END
>  <Dataset>  (367) 
OralDrugs

>  <Ligand_Instance>  (367) 
nan

>  <PDB_ID>  (367) 
nan

>  <Standardized_SMILES>  (367) 
CCc1cccc2c3c([nH]c12)C(CC)(CC(=O)O)OCC3

>  <Name>  (367) 
Etodolac

>  <Pocket>  (367) 
nan

>  <ATP_Site>  (367) 
nan

>  <Peripheral>  (367) 
nan

>  <Num_H_Atoms_ProtBoundConf>  (367) 
nan

>  <Num_Resolved_Atoms>  (367) 
nan

>  <Num_Not_Resolved_Atoms>  (367) 
nan

$$$$
CHEMBL44657
     RDKit          3D

  0  0  0  0  0  0  0  0  0  0999 V3000
M  V30 BEGIN CTAB
M  V30 COUNTS 74 80 0 0 0
M  V30 BEGIN ATOM
M  V30 1 C 3.969289 0.225064 6.570293 0
M  V30 2 O 4.200339 -0.855670 5.732432 0
M  V30 3 C 3.748918 -1.020388 4.434947 0
M  V30 4 C 2.980592 -0.130117 3.727103 0
M  V30 5 C 2.526326 -0.307893 2.405647 0
M  V30 6 C 1.742821 0.763165 1.874013 0 CFG=2
M  V30 7 C 0.258609 0.710945 2.227384 0
M  V30 8 C -0.134979 1.226492 3.453075 0
M  V30 9 C -1.456358 1.248872 3.835177 0
M  V30 10 C -2.405971 0.737014 2.955814 0
M  V30 11 C -1.933800 0.233451 1.738860 0
M  V30 12 C -0.630201 0.187610 1.311763 0
M  V30 13 C -0.282590 -0.390305 0.003283 0 CFG=1
M  V30 14 O -1.294441 -0.429877 -0.929165 0
M  V30 15 C -1.631865 -1.702454 -1.379627 0 CFG=2
M  V30 16 O -1.179666 -1.782783 -2.702086 0
M  V30 17 C -2.122368 -2.154426 -3.619230 0 CFG=2
M  V30 18 C -1.503225 -2.090402 -4.997294 0
M  V30 19 O -2.452882 -1.900317 -6.009015 0
M  V30 20 C -3.182592 -0.764879 -5.684614 0 CFG=1
M  V30 21 C -3.916004 -0.185556 -6.859448 0
M  V30 22 O -4.021546 -1.122795 -4.629696 0
M  V30 23 C -3.248906 -1.135285 -3.500415 0 CFG=1
M  V30 24 C -3.986303 -1.553821 -2.241810 0 CFG=2
M  V30 25 O -4.683814 -0.438793 -1.784713 0
M  V30 26 C -3.043236 -2.109903 -1.215022 0 CFG=1
M  V30 27 O -3.161304 -3.520256 -1.264181 0
M  V30 28 C 1.001076 0.131460 -0.477953 0 CFG=1
M  V30 29 C 0.981328 1.078547 -1.670829 0
M  V30 30 O 2.290835 1.652396 -1.527699 0
M  V30 31 C 2.910608 1.292135 -0.327333 0
M  V30 32 O 4.185023 1.285467 -0.379820 0
M  V30 33 C 1.710415 1.085462 0.453716 0 CFG=2
M  V30 34 O -3.633213 0.883543 3.582152 0
M  V30 35 C -3.483659 1.780133 4.680153 0
M  V30 36 O -2.080272 1.705403 4.986593 0
M  V30 37 C 2.968757 -1.512806 1.925554 0
M  V30 38 C 3.736240 -2.468832 2.544475 0
M  V30 39 O 4.089887 -3.627955 1.910033 0
M  V30 40 C 3.653311 -3.835380 0.576726 0
M  V30 41 C 4.131812 -2.203098 3.837962 0
M  V30 42 O 4.903552 -3.147723 4.478889 0
M  V30 43 H 2.865243 0.418069 6.624497 0
M  V30 44 H 4.414191 0.023268 7.563435 0
M  V30 45 H 4.387995 1.149718 6.129294 0
M  V30 46 H 2.769450 0.753979 4.345048 0
M  V30 47 H 2.070055 1.743851 2.385827 0
M  V30 48 H 0.570114 1.637758 4.161283 0
M  V30 49 H -2.768875 -0.117827 1.151749 0
M  V30 50 H -0.064685 -1.497377 0.205933 0
M  V30 51 H -0.978052 -2.410622 -0.833496 0
M  V30 52 H -2.499958 -3.192331 -3.494485 0
M  V30 53 H -0.999900 -3.066576 -5.240620 0
M  V30 54 H -0.775434 -1.278225 -5.115372 0
M  V30 55 H -2.453675 -0.003839 -5.320967 0
M  V30 56 H -3.177040 0.076395 -7.637712 0
M  V30 57 H -4.404308 0.756560 -6.547754 0
M  V30 58 H -4.707563 -0.883227 -7.214680 0
M  V30 59 H -2.755186 -0.157578 -3.398054 0
M  V30 60 H -4.743578 -2.297475 -2.557295 0
M  V30 61 H -5.662785 -0.591861 -1.763823 0
M  V30 62 H -3.407307 -1.849816 -0.219635 0
M  V30 63 H -2.246692 -3.928755 -1.223225 0
M  V30 64 H 1.717452 -0.670696 -0.841563 0
M  V30 65 H 0.194367 1.831117 -1.622193 0
M  V30 66 H 0.958604 0.527612 -2.633600 0
M  V30 67 H 1.084340 2.046307 0.381239 0
M  V30 68 H -4.015578 1.408631 5.564863 0
M  V30 69 H -3.754433 2.814012 4.406725 0
M  V30 70 H 2.666752 -1.743995 0.917423 0
M  V30 71 H 2.553514 -3.754292 0.463939 0
M  V30 72 H 3.955822 -4.832154 0.181951 0
M  V30 73 H 4.175714 -3.102264 -0.099275 0
M  V30 74 H 4.747102 -3.459019 5.425919 0
M  V30 END ATOM
M  V30 BEGIN BOND
M  V30 1 1 1 2
M  V30 2 1 2 3
M  V30 3 2 3 4
M  V30 4 1 4 5
M  V30 5 1 5 6
M  V30 6 1 6 7
M  V30 7 2 7 8
M  V30 8 1 8 9
M  V30 9 2 9 10
M  V30 10 1 10 11
M  V30 11 2 11 12
M  V30 12 1 12 13
M  V30 13 1 13 14
M  V30 14 1 14 15
M  V30 15 1 15 16
M  V30 16 1 16 17
M  V30 17 1 17 18
M  V30 18 1 18 19
M  V30 19 1 19 20
M  V30 20 1 20 21
M  V30 21 1 20 22
M  V30 22 1 22 23
M  V30 23 1 23 24
M  V30 24 1 24 25
M  V30 25 1 24 26
M  V30 26 1 26 27
M  V30 27 1 13 28
M  V30 28 1 28 29
M  V30 29 1 29 30
M  V30 30 1 30 31
M  V30 31 2 31 32
M  V30 32 1 31 33
M  V30 33 1 10 34
M  V30 34 1 34 35
M  V30 35 1 35 36
M  V30 36 2 5 37
M  V30 37 1 37 38
M  V30 38 1 38 39
M  V30 39 1 39 40
M  V30 40 2 38 41
M  V30 41 1 41 42
M  V30 42 1 41 3
M  V30 43 1 33 6
M  V30 44 1 12 7
M  V30 45 1 26 15
M  V30 46 1 33 28
M  V30 47 1 36 9
M  V30 48 1 23 17
M  V30 49 1 1 43
M  V30 50 1 1 44
M  V30 51 1 1 45
M  V30 52 1 4 46
M  V30 53 1 6 47 CFG=1
M  V30 54 1 8 48
M  V30 55 1 11 49
M  V30 56 1 13 50 CFG=1
M  V30 57 1 15 51 CFG=1
M  V30 58 1 17 52 CFG=1
M  V30 59 1 18 53
M  V30 60 1 18 54
M  V30 61 1 20 55 CFG=1
M  V30 62 1 21 56
M  V30 63 1 21 57
M  V30 64 1 21 58
M  V30 65 1 23 59 CFG=1
M  V30 66 1 24 60 CFG=3
M  V30 67 1 25 61
M  V30 68 1 26 62 CFG=1
M  V30 69 1 27 63
M  V30 70 1 28 64 CFG=3
M  V30 71 1 29 65
M  V30 72 1 29 66
M  V30 73 1 33 67 CFG=1
M  V30 74 1 35 68
M  V30 75 1 35 69
M  V30 76 1 37 70
M  V30 77 1 40 71
M  V30 78 1 40 72
M  V30 79 1 40 73
M  V30 80 1 42 74
M  V30 END BOND
M  V30 END CTAB
M  END
>  <Dataset>  (368) 
OralDrugs

>  <Ligand_Instance>  (368) 
nan

>  <PDB_ID>  (368) 
nan

>  <Standardized_SMILES>  (368) 
COc1cc([C@@H]2c3cc4c(cc3[C@@H](O[C@@H]3O[C@@H]5CO[C@@H](C)O[C@H]5[C@H](O)[C@H]3O)[C@H]3COC(=O)[C@H]23)OCO4)cc(OC)c1O

>  <Name>  (368) 
Etoposide

>  <Pocket>  (368) 
nan

>  <ATP_Site>  (368) 
nan

>  <Peripheral>  (368) 
nan

>  <Num_H_Atoms_ProtBoundConf>  (368) 
nan

>  <Num_Resolved_Atoms>  (368) 
nan

>  <Num_Not_Resolved_Atoms>  (368) 
nan

$$$$
CHEMBL416146
     RDKit          3D

  0  0  0  0  0  0  0  0  0  0999 V3000
M  V30 BEGIN CTAB
M  V30 COUNTS 39 41 0 0 0
M  V30 BEGIN ATOM
M  V30 1 C 0.879285 -4.965160 1.218607 0
M  V30 2 C 1.316085 -3.573957 0.861651 0
M  V30 3 C 1.444372 -2.622305 1.848202 0
M  V30 4 C 1.857998 -1.345344 1.445847 0
M  V30 5 C 2.121425 -1.077858 0.098125 0
M  V30 6 C 2.531282 0.312584 -0.044963 0
M  V30 7 N 3.798897 0.482980 -0.460495 0
M  V30 8 C 4.390803 1.654766 -0.654670 0
M  V30 9 C 3.604665 2.780975 -0.397348 0
M  V30 10 Cl 4.239961 4.414555 -0.605525 0
M  V30 11 C 2.282223 2.663150 0.035796 0
M  V30 12 C 1.720372 1.395966 0.220003 0
M  V30 13 C 0.356938 1.161290 0.657717 0
M  V30 14 C -0.384432 0.520120 -0.342922 0
M  V30 15 C -1.723857 0.208361 -0.113378 0
M  V30 16 C -2.354189 0.509040 1.071831 0
M  V30 17 S -4.035756 0.111829 1.332921 0
M  V30 18 C -4.118143 -1.533507 2.004210 0
M  V30 19 O -4.516208 1.035176 2.443915 0
M  V30 20 O -4.880425 0.271918 0.126342 0
M  V30 21 C -1.599757 1.139010 2.036735 0
M  V30 22 C -0.274225 1.462736 1.845463 0
M  V30 23 C 1.968546 -2.087627 -0.828661 0
M  V30 24 N 1.572881 -3.305028 -0.434303 0
M  V30 25 H 0.571832 -4.968432 2.284119 0
M  V30 26 H 0.068379 -5.290017 0.541068 0
M  V30 27 H 1.771633 -5.655214 1.163006 0
M  V30 28 H 1.227284 -2.884008 2.871171 0
M  V30 29 H 1.931441 -0.661919 2.295162 0
M  V30 30 H 5.402971 1.769408 -0.985755 0
M  V30 31 H 1.647055 3.512959 0.245011 0
M  V30 32 H -0.018804 0.220853 -1.329284 0
M  V30 33 H -2.322776 -0.290523 -0.874426 0
M  V30 34 H -5.176908 -1.733047 2.300145 0
M  V30 35 H -3.808750 -2.300689 1.258034 0
M  V30 36 H -3.473860 -1.601381 2.898088 0
M  V30 37 H -2.026132 1.406957 2.996140 0
M  V30 38 H 0.388049 1.953588 2.541380 0
M  V30 39 H 2.206812 -1.733012 -1.822847 0
M  V30 END ATOM
M  V30 BEGIN BOND
M  V30 1 1 1 2
M  V30 2 2 2 3
M  V30 3 1 3 4
M  V30 4 2 4 5
M  V30 5 1 5 6
M  V30 6 2 6 7
M  V30 7 1 7 8
M  V30 8 2 8 9
M  V30 9 1 9 10
M  V30 10 1 9 11
M  V30 11 2 11 12
M  V30 12 1 12 13
M  V30 13 2 13 14
M  V30 14 1 14 15
M  V30 15 2 15 16
M  V30 16 1 16 17
M  V30 17 1 17 18
M  V30 18 2 17 19
M  V30 19 2 17 20
M  V30 20 1 16 21
M  V30 21 2 21 22
M  V30 22 1 5 23
M  V30 23 2 23 24
M  V30 24 1 24 2
M  V30 25 1 12 6
M  V30 26 1 22 13
M  V30 27 1 1 25
M  V30 28 1 1 26
M  V30 29 1 1 27
M  V30 30 1 3 28
M  V30 31 1 4 29
M  V30 32 1 8 30
M  V30 33 1 11 31
M  V30 34 1 14 32
M  V30 35 1 15 33
M  V30 36 1 18 34
M  V30 37 1 18 35
M  V30 38 1 18 36
M  V30 39 1 21 37
M  V30 40 1 22 38
M  V30 41 1 23 39
M  V30 END BOND
M  V30 END CTAB
M  END
>  <Dataset>  (369) 
OralDrugs

>  <Ligand_Instance>  (369) 
nan

>  <PDB_ID>  (369) 
nan

>  <Standardized_SMILES>  (369) 
Cc1ccc(-c2ncc(Cl)cc2-c2ccc(S(C)(=O)=O)cc2)cn1

>  <Name>  (369) 
Etoricoxib

>  <Pocket>  (369) 
nan

>  <ATP_Site>  (369) 
nan

>  <Peripheral>  (369) 
nan

>  <Num_H_Atoms_ProtBoundConf>  (369) 
nan

>  <Num_Resolved_Atoms>  (369) 
nan

>  <Num_Not_Resolved_Atoms>  (369) 
nan

$$$$
CHEMBL3358920
     RDKit          3D

  0  0  0  0  0  0  0  0  0  0999 V3000
M  V30 BEGIN CTAB
M  V30 COUNTS 59 63 0 0 0
M  V30 BEGIN ATOM
M  V30 1 O 7.616511 -0.385385 4.998978 0
M  V30 2 C 6.701651 -0.937885 4.313089 0
M  V30 3 O 6.572623 -2.230962 4.801951 0
M  V30 4 C 6.083020 -0.070732 3.251317 0
M  V30 5 C 5.033117 -0.911988 2.558790 0 CFG=1
M  V30 6 C 3.970287 -1.384623 3.494754 0
M  V30 7 C 2.645191 -0.824946 3.011098 0
M  V30 8 C 2.971540 -0.020766 1.826547 0
M  V30 9 C 4.344807 -0.067120 1.562967 0
M  V30 10 N 4.610623 0.677278 0.476324 0
M  V30 11 C 3.480375 1.234191 -0.020102 0
M  V30 12 C 3.147757 2.065012 -1.084705 0
M  V30 13 C 1.804318 2.431900 -1.271031 0
M  V30 14 C 0.774466 1.987473 -0.415069 0
M  V30 15 O -0.350629 2.542741 -0.912207 0
M  V30 16 C -1.647632 2.419176 -0.448247 0
M  V30 17 C -2.203803 1.049289 -0.446836 0
M  V30 18 C -2.721598 0.675809 -1.694158 0
M  V30 19 C -3.300370 -0.589634 -1.841943 0
M  V30 20 C -3.369302 -1.472180 -0.784457 0
M  V30 21 C -3.998865 -2.812701 -0.968911 0
M  V30 22 C -5.497021 -2.616140 -0.879440 0
M  V30 23 C -6.029442 -3.657991 -1.842805 0
M  V30 24 C -5.084707 -3.483798 -3.020616 0
M  V30 25 C -3.751357 -3.424195 -2.304273 0
M  V30 26 C -2.870562 -1.146209 0.467251 0
M  V30 27 C -2.895974 -2.020499 1.640773 0
M  V30 28 F -4.122751 -2.412899 2.071403 0
M  V30 29 F -2.325873 -1.327148 2.709378 0
M  V30 30 F -2.044651 -3.127002 1.476945 0
M  V30 31 C -2.318172 0.106939 0.543075 0
M  V30 32 C 1.189412 1.173237 0.607976 0
M  V30 33 C 2.489406 0.790555 0.825939 0
M  V30 34 H 7.302042 -2.921459 4.735285 0
M  V30 35 H 5.582069 0.796405 3.714714 0
M  V30 36 H 6.833635 0.276099 2.523986 0
M  V30 37 H 5.594003 -1.754319 2.087516 0
M  V30 38 H 4.160540 -1.122174 4.556849 0
M  V30 39 H 3.928505 -2.510269 3.427942 0
M  V30 40 H 1.931022 -1.638292 2.739914 0
M  V30 41 H 2.204425 -0.198809 3.835393 0
M  V30 42 H 5.553884 0.828217 0.043960 0
M  V30 43 H 4.009222 2.331442 -1.655512 0
M  V30 44 H 1.797468 3.078672 -2.159209 0
M  V30 45 H -1.617003 2.765514 0.637655 0
M  V30 46 H -2.338657 3.122600 -0.992497 0
M  V30 47 H -2.703820 1.312159 -2.569502 0
M  V30 48 H -3.695339 -0.847059 -2.825929 0
M  V30 49 H -3.748783 -3.492231 -0.123754 0
M  V30 50 H -5.917788 -2.703699 0.118100 0
M  V30 51 H -5.695016 -1.634153 -1.371556 0
M  V30 52 H -5.891114 -4.699611 -1.476256 0
M  V30 53 H -7.048974 -3.432541 -2.175891 0
M  V30 54 H -5.128093 -4.327569 -3.732010 0
M  V30 55 H -5.299249 -2.559118 -3.581075 0
M  V30 56 H -3.390913 -4.474489 -2.251899 0
M  V30 57 H -3.086337 -2.774920 -2.891051 0
M  V30 58 H -1.919247 0.438299 1.491171 0
M  V30 59 H 0.349988 0.897574 1.199451 0
M  V30 END ATOM
M  V30 BEGIN BOND
M  V30 1 2 1 2
M  V30 2 1 2 3
M  V30 3 1 2 4
M  V30 4 1 4 5
M  V30 5 1 5 6
M  V30 6 1 6 7
M  V30 7 1 7 8
M  V30 8 2 8 9
M  V30 9 1 9 10
M  V30 10 1 10 11
M  V30 11 2 11 12
M  V30 12 1 12 13
M  V30 13 2 13 14
M  V30 14 1 14 15
M  V30 15 1 15 16
M  V30 16 1 16 17
M  V30 17 2 17 18
M  V30 18 1 18 19
M  V30 19 2 19 20
M  V30 20 1 20 21
M  V30 21 1 21 22
M  V30 22 1 22 23
M  V30 23 1 23 24
M  V30 24 1 24 25
M  V30 25 1 20 26
M  V30 26 1 26 27
M  V30 27 1 27 28
M  V30 28 1 27 29
M  V30 29 1 27 30
M  V30 30 2 26 31
M  V30 31 1 14 32
M  V30 32 2 32 33
M  V30 33 1 9 5
M  V30 34 1 33 11
M  V30 35 1 33 8
M  V30 36 1 31 17
M  V30 37 1 25 21
M  V30 38 1 3 34
M  V30 39 1 4 35
M  V30 40 1 4 36
M  V30 41 1 5 37 CFG=3
M  V30 42 1 6 38
M  V30 43 1 6 39
M  V30 44 1 7 40
M  V30 45 1 7 41
M  V30 46 1 10 42
M  V30 47 1 12 43
M  V30 48 1 13 44
M  V30 49 1 16 45
M  V30 50 1 16 46
M  V30 51 1 18 47
M  V30 52 1 19 48
M  V30 53 1 21 49
M  V30 54 1 22 50
M  V30 55 1 22 51
M  V30 56 1 23 52
M  V30 57 1 23 53
M  V30 58 1 24 54
M  V30 59 1 24 55
M  V30 60 1 25 56
M  V30 61 1 25 57
M  V30 62 1 31 58
M  V30 63 1 32 59
M  V30 END BOND
M  V30 END CTAB
M  END
>  <Dataset>  (370) 
OralDrugs

>  <Ligand_Instance>  (370) 
nan

>  <PDB_ID>  (370) 
nan

>  <Standardized_SMILES>  (370) 
O=C(O)C[C@H]1CCc2c1[nH]c1ccc(OCc3ccc(C4CCCC4)c(C(F)(F)F)c3)cc21

>  <Name>  (370) 
Etrasimod

>  <Pocket>  (370) 
nan

>  <ATP_Site>  (370) 
nan

>  <Peripheral>  (370) 
nan

>  <Num_H_Atoms_ProtBoundConf>  (370) 
nan

>  <Num_Resolved_Atoms>  (370) 
nan

>  <Num_Not_Resolved_Atoms>  (370) 
nan

$$$$
CHEMBL308954
     RDKit          3D

  0  0  0  0  0  0  0  0  0  0999 V3000
M  V30 BEGIN CTAB
M  V30 COUNTS 43 45 0 0 0
M  V30 BEGIN ATOM
M  V30 1 C -0.113039 -2.424599 -1.442023 0
M  V30 2 C 1.361882 -2.306497 -1.469014 0
M  V30 3 C 2.067156 -3.139461 -2.331234 0
M  V30 4 C 3.438758 -3.030999 -2.352707 0
M  V30 5 C 4.227651 -3.856329 -3.232749 0
M  V30 6 N 4.845141 -4.519249 -3.946681 0
M  V30 7 C 4.159661 -2.145075 -1.569568 0
M  V30 8 C 3.411584 -1.341889 -0.733499 0
M  V30 9 C 4.140930 -0.376439 0.138632 0
M  V30 10 C 2.011496 -1.401081 -0.663832 0
M  V30 11 O 1.395241 -0.563221 0.191545 0
M  V30 12 C 1.053246 -0.636832 1.493684 0
M  V30 13 N 0.411627 0.524230 1.843760 0
M  V30 14 C -0.044024 0.725118 3.098209 0
M  V30 15 N -0.768979 1.810041 3.706473 0
M  V30 16 C -1.915017 1.959922 2.844514 0
M  V30 17 C -3.229074 1.820280 3.263409 0
M  V30 18 C -4.261670 2.002836 2.374415 0
M  V30 19 C -4.028428 2.330106 1.048755 0
M  V30 20 C -5.096225 2.515124 0.140411 0
M  V30 21 N -5.989883 2.655241 -0.606065 0
M  V30 22 C -2.731518 2.489763 0.551412 0
M  V30 23 C -1.726950 2.287173 1.509632 0
M  V30 24 N 0.141383 -0.240163 4.014230 0
M  V30 25 C 0.761526 -1.389145 3.713206 0
M  V30 26 N 1.012559 -2.507190 4.563331 0
M  V30 27 C 1.240744 -1.637780 2.456077 0
M  V30 28 Br 2.159003 -3.170222 1.770589 0
M  V30 29 H -0.472253 -1.930578 -0.500428 0
M  V30 30 H -0.315458 -3.522856 -1.278179 0
M  V30 31 H -0.623797 -2.053616 -2.342636 0
M  V30 32 H 1.638337 -3.878682 -2.995261 0
M  V30 33 H 5.237328 -2.085698 -1.604981 0
M  V30 34 H 3.543377 -0.236204 1.086433 0
M  V30 35 H 5.130865 -0.772783 0.482043 0
M  V30 36 H 4.252758 0.611868 -0.331831 0
M  V30 37 H -0.483698 2.341525 4.567302 0
M  V30 38 H -3.338698 1.567341 4.307633 0
M  V30 39 H -5.282463 1.872158 2.758678 0
M  V30 40 H -2.475098 2.746417 -0.462702 0
M  V30 41 H -0.708246 2.427225 1.120059 0
M  V30 42 H 0.080062 -3.003340 4.609993 0
M  V30 43 H 1.857170 -2.895818 5.097757 0
M  V30 END ATOM
M  V30 BEGIN BOND
M  V30 1 1 1 2
M  V30 2 2 2 3
M  V30 3 1 3 4
M  V30 4 1 4 5
M  V30 5 3 5 6
M  V30 6 2 4 7
M  V30 7 1 7 8
M  V30 8 1 8 9
M  V30 9 2 8 10
M  V30 10 1 10 11
M  V30 11 1 11 12
M  V30 12 2 12 13
M  V30 13 1 13 14
M  V30 14 1 14 15
M  V30 15 1 15 16
M  V30 16 2 16 17
M  V30 17 1 17 18
M  V30 18 2 18 19
M  V30 19 1 19 20
M  V30 20 3 20 21
M  V30 21 1 19 22
M  V30 22 2 22 23
M  V30 23 2 14 24
M  V30 24 1 24 25
M  V30 25 1 25 26
M  V30 26 2 25 27
M  V30 27 1 27 28
M  V30 28 1 10 2
M  V30 29 1 27 12
M  V30 30 1 23 16
M  V30 31 1 1 29
M  V30 32 1 1 30
M  V30 33 1 1 31
M  V30 34 1 3 32
M  V30 35 1 7 33
M  V30 36 1 9 34
M  V30 37 1 9 35
M  V30 38 1 9 36
M  V30 39 1 15 37
M  V30 40 1 17 38
M  V30 41 1 18 39
M  V30 42 1 22 40
M  V30 43 1 23 41
M  V30 44 1 26 42
M  V30 45 1 26 43
M  V30 END BOND
M  V30 END CTAB
M  END
>  <Dataset>  (371) 
OralDrugs

>  <Ligand_Instance>  (371) 
nan

>  <PDB_ID>  (371) 
nan

>  <Standardized_SMILES>  (371) 
Cc1cc(C#N)cc(C)c1Oc1nc(Nc2ccc(C#N)cc2)nc(N)c1Br

>  <Name>  (371) 
Etravirine

>  <Pocket>  (371) 
nan

>  <ATP_Site>  (371) 
nan

>  <Peripheral>  (371) 
nan

>  <Num_H_Atoms_ProtBoundConf>  (371) 
nan

>  <Num_Resolved_Atoms>  (371) 
nan

>  <Num_Not_Resolved_Atoms>  (371) 
nan

$$$$
CHEMBL1908360
     RDKit          3D

  0  0  0  0  0  0  0  0  0  0999 V3000
M  V30 BEGIN CTAB
M  V30 COUNTS 151 154 0 0 0
M  V30 BEGIN ATOM
M  V30 1 C -0.921873 2.444930 -5.368778 0
M  V30 2 O 0.248259 3.049174 -4.964557 0
M  V30 3 C 1.144218 2.202192 -4.342697 0 CFG=1
M  V30 4 C 2.420531 2.128652 -5.162168 0
M  V30 5 C 3.361652 1.119791 -4.510515 0 CFG=2
M  V30 6 C 4.636556 0.957732 -5.246685 0
M  V30 7 C 5.398951 -0.291977 -4.912549 0
M  V30 8 C 4.546504 -1.433337 -4.474002 0 CFG=1
M  V30 9 C 5.336969 -2.555109 -3.847428 0
M  V30 10 C 3.481762 -0.905082 -3.528735 0 CFG=1
M  V30 11 O 4.151024 -0.140951 -2.590319 0
M  V30 12 O 2.689445 -0.095588 -4.293667 0
M  V30 13 C 2.748388 -1.985855 -2.828289 0
M  V30 14 O 2.746513 -1.856620 -1.543053 0
M  V30 15 C 1.958818 -3.211334 -2.672936 0
M  V30 16 O 2.180260 -3.028189 -3.883087 0
M  V30 17 N 1.384405 -4.237942 -3.507243 0
M  V30 18 C 1.175401 -4.904284 -4.844544 0
M  V30 19 C 1.420600 -6.381618 -4.685706 0
M  V30 20 C 2.198242 -6.754707 -3.442074 0
M  V30 21 C 1.488145 -6.287445 -2.172110 0
M  V30 22 C 0.633856 -5.134380 -2.598771 0 CFG=1
M  V30 23 C -0.097397 -4.435244 -1.538514 0
M  V30 24 O -0.993329 -5.076274 -0.945450 0
M  V30 25 O -0.018770 -3.173798 -1.029300 0
M  V30 26 C -0.832694 -2.668333 -0.011975 0 CFG=2
M  V30 27 C -1.734491 -1.520107 -0.509026 0 CFG=2
M  V30 28 C -0.781158 -0.468027 -0.987810 0
M  V30 29 C -2.704613 -1.112231 0.524132 0
M  V30 30 C -3.710430 -0.051835 0.206290 0 CFG=2
M  V30 31 C -3.204880 1.280803 -0.182793 0
M  V30 32 C -4.305873 2.318075 -0.327729 0
M  V30 33 C -5.636358 1.865474 0.172866 0 CFG=1
M  V30 34 O -6.233443 1.074320 -0.823510 0
M  V30 35 C -7.394556 1.680582 -1.303900 0
M  V30 36 C -7.962644 0.754784 -2.359936 0
M  V30 37 O -8.224709 -0.463966 -1.702605 0
M  V30 38 C -5.568817 1.128653 1.468964 0 CFG=2
M  V30 39 O -5.438693 1.985108 2.565009 0
M  V30 40 C -6.519091 1.944468 3.433243 0
M  V30 41 C -4.532284 0.073271 1.513047 0
M  V30 42 C -0.026299 -2.327519 1.182583 0
M  V30 43 C 0.473221 -3.625749 1.769256 0
M  V30 44 O 0.522431 -4.848118 1.750788 0
M  V30 45 C 1.374410 -3.664444 2.998507 0 CFG=2
M  V30 46 C 1.359811 -5.057464 3.575878 0
M  V30 47 C 0.849640 -2.696353 3.968280 0
M  V30 48 C 1.432962 -1.613904 4.586720 0
M  V30 49 C 2.808246 -1.687228 3.993184 0
M  V30 50 C 0.629307 -0.787003 5.519637 0 CFG=1
M  V30 51 O 0.773158 -1.046266 6.850786 0
M  V30 52 C 0.526625 0.662531 5.143433 0 CFG=1
M  V30 53 O -0.653724 1.243991 5.575646 0
M  V30 54 C -1.531006 1.590626 4.574549 0
M  V30 55 C 1.616562 1.504032 5.727148 0
M  V30 56 O 2.736346 1.064479 5.913985 0
M  V30 57 C 1.571421 2.952145 6.166119 0 CFG=2
M  V30 58 C 0.345967 3.204966 6.986398 0
M  V30 59 C 1.536339 3.832831 4.921305 0
M  V30 60 C 2.731371 3.523030 4.054161 0 CFG=2
M  V30 61 C 4.040867 3.875238 4.696232 0
M  V30 62 C 2.527721 4.055089 2.697820 0
M  V30 63 C 2.287568 3.260192 1.700839 0
M  V30 64 C 2.021129 3.078019 0.277916 0
M  V30 65 C 1.791559 2.027394 -0.465401 0
M  V30 66 C 1.549155 2.013787 -1.876967 0
M  V30 67 C 1.446319 2.739235 -2.961607 0
M  V30 68 C 1.733622 4.217604 -2.860050 0
M  V30 69 H -1.458318 2.009899 -4.485750 0
M  V30 70 H -0.838459 1.704660 -6.162513 0
M  V30 71 H -1.586722 3.256239 -5.751792 0
M  V30 72 H 0.714126 1.201169 -4.306144 0
M  V30 73 H 2.964946 3.068326 -5.242974 0
M  V30 74 H 2.163386 1.758027 -6.149493 0
M  V30 75 H 3.575122 1.515520 -3.498954 0
M  V30 76 H 5.315628 1.841124 -5.149301 0
M  V30 77 H 4.412756 0.894164 -6.340117 0
M  V30 78 H 6.114048 -0.572362 -5.710497 0
M  V30 79 H 6.035434 -0.026442 -4.019717 0
M  V30 80 H 4.011050 -1.842848 -5.354571 0
M  V30 81 H 4.988420 -3.552973 -4.235629 0
M  V30 82 H 5.246536 -2.481057 -2.756857 0
M  V30 83 H 6.396056 -2.420864 -4.138911 0
M  V30 84 H 3.570223 -0.108343 -1.787021 0
M  V30 85 H 0.096130 -4.763404 -5.037714 0
M  V30 86 H 1.737782 -4.417592 -5.630363 0
M  V30 87 H 0.486267 -6.976596 -4.681276 0
M  V30 88 H 2.024226 -6.756785 -5.540069 0
M  V30 89 H 2.229618 -7.860366 -3.404807 0
M  V30 90 H 3.251495 -6.409180 -3.466361 0
M  V30 91 H 0.798095 -7.087765 -1.814186 0
M  V30 92 H 2.174027 -6.091139 -1.338683 0
M  V30 93 H -0.205595 -5.626500 -3.196045 0
M  V30 94 H -1.567182 -3.464593 0.319109 0
M  V30 95 H -2.306315 -1.899446 -1.397941 0
M  V30 96 H -0.979153 -0.097202 -2.012866 0
M  V30 97 H 0.264195 -0.880645 -0.992887 0
M  V30 98 H -0.749596 0.369410 -0.264976 0
M  V30 99 H -3.329611 -2.029578 0.782085 0
M  V30 100 H -2.177191 -0.788131 1.464499 0
M  V30 101 H -4.461831 -0.431774 -0.541741 0
M  V30 102 H -2.709326 1.175227 -1.182958 0
M  V30 103 H -2.545120 1.658072 0.612966 0
M  V30 104 H -4.423682 2.533589 -1.407968 0
M  V30 105 H -3.992421 3.304423 0.114273 0
M  V30 106 H -6.257859 2.780037 0.313492 0
M  V30 107 H -7.237913 2.700374 -1.683441 0
M  V30 108 H -8.118179 1.763923 -0.462758 0
M  V30 109 H -8.914722 1.154041 -2.720355 0
M  V30 110 H -7.219723 0.605774 -3.171607 0
M  V30 111 H -7.378268 -0.949120 -1.567808 0
M  V30 112 H -6.574723 0.636605 1.624812 0
M  V30 113 H -6.434588 2.608642 4.299156 0
M  V30 114 H -7.482008 2.018791 2.886451 0
M  V30 115 H -6.517713 0.899531 3.850592 0
M  V30 116 H -4.963287 -0.924551 1.694996 0
M  V30 117 H -3.755799 0.223683 2.292807 0
M  V30 118 H 0.889454 -1.806132 0.833119 0
M  V30 119 H -0.534280 -1.820098 2.001801 0
M  V30 120 H 2.388436 -3.481960 2.619263 0
M  V30 121 H 1.862658 -5.724266 2.845949 0
M  V30 122 H 1.888851 -5.014271 4.545782 0
M  V30 123 H 0.306787 -5.400240 3.688946 0
M  V30 124 H -0.203360 -2.998802 4.151431 0
M  V30 125 H 2.753032 -1.549967 2.887635 0
M  V30 126 H 3.400595 -0.846782 4.356694 0
M  V30 127 H 3.304973 -2.664621 4.178364 0
M  V30 128 H -0.461905 -1.177421 5.302519 0
M  V30 129 H 0.383698 -1.948342 7.070973 0
M  V30 130 H 0.486831 0.692782 4.031400 0
M  V30 131 H -1.097379 2.292387 3.876287 0
M  V30 132 H -2.400616 2.102883 5.069971 0
M  V30 133 H -1.962304 0.704692 4.055444 0
M  V30 134 H 2.495938 3.224842 6.725304 0
M  V30 135 H -0.007510 2.320625 7.548573 0
M  V30 136 H 0.615687 4.046844 7.690312 0
M  V30 137 H -0.451702 3.636612 6.320370 0
M  V30 138 H 1.672595 4.896374 5.245917 0
M  V30 139 H 0.632198 3.782392 4.342156 0
M  V30 140 H 2.772842 2.371709 4.000605 0
M  V30 141 H 3.839520 4.724072 5.385185 0
M  V30 142 H 4.764475 4.152566 3.899515 0
M  V30 143 H 4.497681 3.032008 5.234249 0
M  V30 144 H 2.603632 5.146446 2.662479 0
M  V30 145 H 2.259900 2.223723 2.016147 0
M  V30 146 H 2.087337 4.139192 0.110490 0
M  V30 147 H 1.820822 1.179380 0.194431 0
M  V30 148 H 1.395479 0.953914 -2.136998 0
M  V30 149 H 1.369772 4.751170 -3.781914 0
M  V30 150 H 1.150874 4.685190 -2.038380 0
M  V30 151 H 2.797716 4.418102 -2.667348 0
M  V30 END ATOM
M  V30 BEGIN BOND
M  V30 1 1 1 2
M  V30 2 1 2 3
M  V30 3 1 3 4
M  V30 4 1 4 5
M  V30 5 1 5 6
M  V30 6 1 6 7
M  V30 7 1 7 8
M  V30 8 1 8 9
M  V30 9 1 8 10
M  V30 10 1 10 11 CFG=1
M  V30 11 1 10 12
M  V30 12 1 10 13
M  V30 13 2 13 14
M  V30 14 1 13 15
M  V30 15 2 15 16
M  V30 16 1 15 17
M  V30 17 1 17 18
M  V30 18 1 18 19
M  V30 19 1 19 20
M  V30 20 1 20 21
M  V30 21 1 21 22
M  V30 22 1 22 23
M  V30 23 2 23 24
M  V30 24 1 23 25
M  V30 25 1 25 26
M  V30 26 1 26 27
M  V30 27 1 27 28
M  V30 28 1 27 29
M  V30 29 1 29 30
M  V30 30 1 30 31
M  V30 31 1 31 32
M  V30 32 1 32 33
M  V30 33 1 33 34
M  V30 34 1 34 35
M  V30 35 1 35 36
M  V30 36 1 36 37
M  V30 37 1 33 38
M  V30 38 1 38 39
M  V30 39 1 39 40
M  V30 40 1 38 41
M  V30 41 1 26 42
M  V30 42 1 42 43
M  V30 43 2 43 44
M  V30 44 1 43 45
M  V30 45 1 45 46
M  V30 46 1 45 47
M  V30 47 2 47 48
M  V30 48 1 48 49
M  V30 49 1 48 50
M  V30 50 1 50 51
M  V30 51 1 50 52
M  V30 52 1 52 53
M  V30 53 1 53 54
M  V30 54 1 52 55
M  V30 55 2 55 56
M  V30 56 1 55 57
M  V30 57 1 57 58
M  V30 58 1 57 59
M  V30 59 1 59 60
M  V30 60 1 60 61
M  V30 61 1 60 62
M  V30 62 2 62 63
M  V30 63 1 63 64
M  V30 64 2 64 65
M  V30 65 1 65 66
M  V30 66 2 66 67
M  V30 67 1 67 68
M  V30 68 1 67 3
M  V30 69 1 12 5
M  V30 70 1 22 17
M  V30 71 1 41 30
M  V30 72 1 1 69
M  V30 73 1 1 70
M  V30 74 1 1 71
M  V30 75 1 3 72 CFG=1
M  V30 76 1 4 73
M  V30 77 1 4 74
M  V30 78 1 5 75 CFG=1
M  V30 79 1 6 76
M  V30 80 1 6 77
M  V30 81 1 7 78
M  V30 82 1 7 79
M  V30 83 1 8 80 CFG=3
M  V30 84 1 9 81
M  V30 85 1 9 82
M  V30 86 1 9 83
M  V30 87 1 11 84
M  V30 88 1 18 85
M  V30 89 1 18 86
M  V30 90 1 19 87
M  V30 91 1 19 88
M  V30 92 1 20 89
M  V30 93 1 20 90
M  V30 94 1 21 91
M  V30 95 1 21 92
M  V30 96 1 22 93 CFG=3
M  V30 97 1 26 94 CFG=1
M  V30 98 1 27 95 CFG=3
M  V30 99 1 28 96
M  V30 100 1 28 97
M  V30 101 1 28 98
M  V30 102 1 29 99
M  V30 103 1 29 100
M  V30 104 1 30 101 CFG=3
M  V30 105 1 31 102
M  V30 106 1 31 103
M  V30 107 1 32 104
M  V30 108 1 32 105
M  V30 109 1 33 106 CFG=1
M  V30 110 1 35 107
M  V30 111 1 35 108
M  V30 112 1 36 109
M  V30 113 1 36 110
M  V30 114 1 37 111
M  V30 115 1 38 112 CFG=1
M  V30 116 1 40 113
M  V30 117 1 40 114
M  V30 118 1 40 115
M  V30 119 1 41 116
M  V30 120 1 41 117
M  V30 121 1 42 118
M  V30 122 1 42 119
M  V30 123 1 45 120 CFG=3
M  V30 124 1 46 121
M  V30 125 1 46 122
M  V30 126 1 46 123
M  V30 127 1 47 124
M  V30 128 1 49 125
M  V30 129 1 49 126
M  V30 130 1 49 127
M  V30 131 1 50 128 CFG=3
M  V30 132 1 51 129
M  V30 133 1 52 130 CFG=3
M  V30 134 1 54 131
M  V30 135 1 54 132
M  V30 136 1 54 133
M  V30 137 1 57 134 CFG=1
M  V30 138 1 58 135
M  V30 139 1 58 136
M  V30 140 1 58 137
M  V30 141 1 59 138
M  V30 142 1 59 139
M  V30 143 1 60 140 CFG=3
M  V30 144 1 61 141
M  V30 145 1 61 142
M  V30 146 1 61 143
M  V30 147 1 62 144
M  V30 148 1 63 145
M  V30 149 1 64 146
M  V30 150 1 65 147
M  V30 151 1 66 148
M  V30 152 1 68 149
M  V30 153 1 68 150
M  V30 154 1 68 151
M  V30 END BOND
M  V30 END CTAB
M  END
>  <Dataset>  (372) 
OralDrugs

>  <Ligand_Instance>  (372) 
nan

>  <PDB_ID>  (372) 
nan

>  <Standardized_SMILES>  (372) 
CO[C@H]1C[C@@H]2CC[C@@H](C)[C@@](O)(O2)C(=O)C(=O)N2CCCC[C@H]2C(=O)O[C@H]([C@H](C)C[C@@H]2CC[C@@H](OCCO)[C@H](OC)C2)CC(=O)[C@H](C)/C=C(\C)[C@@H](O)[C@@H](OC)C(=O)[C@H](C)C[C@H](C)/C=C/C=C/C=C/1C

>  <Name>  (372) 
Everolimus

>  <Pocket>  (372) 
nan

>  <ATP_Site>  (372) 
nan

>  <Peripheral>  (372) 
nan

>  <Num_H_Atoms_ProtBoundConf>  (372) 
nan

>  <Num_Resolved_Atoms>  (372) 
nan

>  <Num_Not_Resolved_Atoms>  (372) 
nan

$$$$
CHEMBL1779710
     RDKit          3D

  0  0  0  0  0  0  0  0  0  0999 V3000
M  V30 BEGIN CTAB
M  V30 COUNTS 54 55 0 0 0
M  V30 BEGIN ATOM
M  V30 1 C 1.702639 -2.220937 1.092146 0
M  V30 2 C 1.214390 -1.867378 2.469306 0
M  V30 3 C 0.133316 -2.909407 2.824064 0
M  V30 4 C 2.307038 -2.176134 3.483690 0
M  V30 5 O 0.626018 -0.669573 2.628110 0
M  V30 6 C 1.214958 0.491914 2.402875 0
M  V30 7 C 1.669336 0.885679 1.071818 0 CFG=2
M  V30 8 C 2.404782 2.225144 1.118375 0
M  V30 9 O 2.324889 2.878853 2.215759 0
M  V30 10 N 3.126355 2.672893 -0.031669 0
M  V30 11 C 2.778655 1.801448 -1.149327 0
M  V30 12 C 1.246928 1.760336 -1.163520 0
M  V30 13 N 0.725978 1.032231 0.014449 0
M  V30 14 C -0.644487 0.611747 -0.025811 0
M  V30 15 O -1.207255 -0.072184 0.866308 0
M  V30 16 C -1.474327 1.005484 -1.183398 0
M  V30 17 C -2.879914 0.542000 -1.163103 0 CFG=2
M  V30 18 N -3.547456 1.004547 0.032777 0
M  V30 19 C -3.171635 -0.812788 -1.630769 0
M  V30 20 C -2.586421 -1.977465 -1.010739 0
M  V30 21 C -3.350519 -2.710445 -0.108462 0
M  V30 22 C -2.982853 -3.851279 0.571488 0
M  V30 23 F -3.827072 -4.470370 1.425856 0
M  V30 24 C -1.720312 -4.325563 0.337915 0
M  V30 25 F -1.284485 -5.441789 0.965458 0
M  V30 26 C -0.885777 -3.668648 -0.539687 0
M  V30 27 C -1.315418 -2.531798 -1.187475 0
M  V30 28 F -0.505906 -1.882274 -2.055889 0
M  V30 29 H 1.088438 -1.708534 0.348712 0
M  V30 30 H 1.572288 -3.344264 0.983002 0
M  V30 31 H 2.799971 -2.092586 0.980251 0
M  V30 32 H 0.132609 -3.086598 3.931602 0
M  V30 33 H 0.422586 -3.840854 2.303736 0
M  V30 34 H -0.842671 -2.591291 2.460606 0
M  V30 35 H 3.201051 -1.563520 3.388737 0
M  V30 36 H 2.598044 -3.228969 3.277295 0
M  V30 37 H 1.866039 -2.207091 4.508260 0
M  V30 38 H 0.503256 1.312456 2.761153 0
M  V30 39 H 2.097103 0.683062 3.105601 0
M  V30 40 H 2.471427 0.207722 0.698873 0
M  V30 41 H 3.745576 3.487687 0.079569 0
M  V30 42 H 3.058262 2.236999 -2.122802 0
M  V30 43 H 3.234746 0.812383 -1.095750 0
M  V30 44 H 0.876367 1.230474 -2.044276 0
M  V30 45 H 0.958492 2.829245 -1.093303 0
M  V30 46 H -1.496538 2.145478 -1.257024 0
M  V30 47 H -1.052331 0.714874 -2.170396 0
M  V30 48 H -3.426676 1.207923 -1.989926 0
M  V30 49 H -3.022527 1.837567 0.380723 0
M  V30 50 H -3.520842 0.321236 0.824077 0
M  V30 51 H -2.917880 -0.849274 -2.755992 0
M  V30 52 H -4.300276 -1.009159 -1.694625 0
M  V30 53 H -4.366374 -2.364010 0.105624 0
M  V30 54 H 0.119373 -3.988651 -0.775569 0
M  V30 END ATOM
M  V30 BEGIN BOND
M  V30 1 1 1 2
M  V30 2 1 2 3
M  V30 3 1 2 4
M  V30 4 1 2 5
M  V30 5 1 5 6
M  V30 6 1 6 7
M  V30 7 1 7 8
M  V30 8 2 8 9
M  V30 9 1 8 10
M  V30 10 1 10 11
M  V30 11 1 11 12
M  V30 12 1 12 13
M  V30 13 1 13 14
M  V30 14 2 14 15
M  V30 15 1 14 16
M  V30 16 1 16 17
M  V30 17 1 17 18
M  V30 18 1 17 19
M  V30 19 1 19 20
M  V30 20 2 20 21
M  V30 21 1 21 22
M  V30 22 1 22 23
M  V30 23 2 22 24
M  V30 24 1 24 25
M  V30 25 1 24 26
M  V30 26 2 26 27
M  V30 27 1 27 28
M  V30 28 1 13 7
M  V30 29 1 27 20
M  V30 30 1 1 29
M  V30 31 1 1 30
M  V30 32 1 1 31
M  V30 33 1 3 32
M  V30 34 1 3 33
M  V30 35 1 3 34
M  V30 36 1 4 35
M  V30 37 1 4 36
M  V30 38 1 4 37
M  V30 39 1 6 38
M  V30 40 1 6 39
M  V30 41 1 7 40 CFG=3
M  V30 42 1 10 41
M  V30 43 1 11 42
M  V30 44 1 11 43
M  V30 45 1 12 44
M  V30 46 1 12 45
M  V30 47 1 16 46
M  V30 48 1 16 47
M  V30 49 1 17 48 CFG=3
M  V30 50 1 18 49
M  V30 51 1 18 50
M  V30 52 1 19 51
M  V30 53 1 19 52
M  V30 54 1 21 53
M  V30 55 1 26 54
M  V30 END BOND
M  V30 END CTAB
M  END
>  <Dataset>  (373) 
OralDrugs

>  <Ligand_Instance>  (373) 
nan

>  <PDB_ID>  (373) 
nan

>  <Standardized_SMILES>  (373) 
CC(C)(C)OC[C@@H]1C(=O)NCCN1C(=O)C[C@H](N)Cc1cc(F)c(F)cc1F

>  <Name>  (373) 
Evogliptin

>  <Pocket>  (373) 
nan

>  <ATP_Site>  (373) 
nan

>  <Peripheral>  (373) 
nan

>  <Num_H_Atoms_ProtBoundConf>  (373) 
nan

>  <Num_Resolved_Atoms>  (373) 
nan

>  <Num_Not_Resolved_Atoms>  (373) 
nan

$$$$
CHEMBL1200374
     RDKit          3D

  0  0  0  0  0  0  0  0  0  0999 V3000
M  V30 BEGIN CTAB
M  V30 COUNTS 46 49 0 0 0
M  V30 BEGIN ATOM
M  V30 1 C -3.614759 -0.349104 0.202275 0
M  V30 2 C -2.323388 -0.640311 0.326679 0
M  V30 3 C -1.376525 0.469504 0.313017 0
M  V30 4 C 0.050492 0.159613 0.493650 0 CFG=2
M  V30 5 C 0.377557 -1.311259 0.777313 0 CFG=2
M  V30 6 C 1.849121 -1.435361 0.443899 0
M  V30 7 C 2.698944 -0.574371 1.347995 0
M  V30 8 C 2.265986 0.837470 1.356389 0 CFG=2
M  V30 9 C 2.730463 1.673814 0.224036 0
M  V30 10 C 2.639752 1.573222 2.611476 0
M  V30 11 O 3.453902 1.431916 3.513883 0
M  V30 12 C 1.689766 2.746169 2.617164 0
M  V30 13 C 0.539275 2.338307 1.703680 0
M  V30 14 C 0.758594 0.876640 1.578958 0 CFG=1
M  V30 15 C -0.476540 -2.244403 0.019027 0 CFG=1
M  V30 16 C -0.395470 -1.910557 -1.458932 0
M  V30 17 C -0.041524 -3.624926 0.176910 0
M  V30 18 C -0.809324 -4.592012 0.671096 0
M  V30 19 C -2.170464 -4.282285 1.089202 0
M  V30 20 O -2.920620 -5.182551 1.560573 0
M  V30 21 C -2.707870 -2.927269 0.976945 0
M  V30 22 C -1.880507 -2.022046 0.476479 0
M  V30 23 H -4.412274 -1.066272 0.196444 0
M  V30 24 H -3.981890 0.658014 0.093741 0
M  V30 25 H -1.719894 1.186532 1.116360 0
M  V30 26 H -1.596178 1.048274 -0.633018 0
M  V30 27 H 0.555292 0.373752 -0.494959 0
M  V30 28 H 0.300290 -1.497822 1.881621 0
M  V30 29 H 1.979673 -0.990013 -0.582954 0
M  V30 30 H 2.233731 -2.452740 0.433225 0
M  V30 31 H 3.745926 -0.680210 0.987918 0
M  V30 32 H 2.599727 -0.992881 2.365447 0
M  V30 33 H 2.130751 1.654714 -0.693271 0
M  V30 34 H 2.840615 2.745615 0.517810 0
M  V30 35 H 3.748591 1.346457 -0.053952 0
M  V30 36 H 2.163243 3.657197 2.213130 0
M  V30 37 H 1.329251 2.949162 3.647210 0
M  V30 38 H -0.405460 2.588918 2.219783 0
M  V30 39 H 0.644127 2.817402 0.716575 0
M  V30 40 H 0.580163 0.350103 2.542262 0
M  V30 41 H 0.638522 -2.128877 -1.825237 0
M  V30 42 H -1.042095 -2.608721 -2.034061 0
M  V30 43 H -0.567765 -0.847039 -1.681040 0
M  V30 44 H 0.944438 -3.927869 -0.107936 0
M  V30 45 H -0.448398 -5.603092 0.770410 0
M  V30 46 H -3.708952 -2.637277 1.270677 0
M  V30 END ATOM
M  V30 BEGIN BOND
M  V30 1 2 1 2
M  V30 2 1 2 3
M  V30 3 1 3 4
M  V30 4 1 4 5
M  V30 5 1 5 6
M  V30 6 1 6 7
M  V30 7 1 7 8
M  V30 8 1 8 9 CFG=3
M  V30 9 1 8 10
M  V30 10 2 10 11
M  V30 11 1 10 12
M  V30 12 1 12 13
M  V30 13 1 13 14
M  V30 14 1 5 15
M  V30 15 1 15 16 CFG=3
M  V30 16 1 15 17
M  V30 17 2 17 18
M  V30 18 1 18 19
M  V30 19 2 19 20
M  V30 20 1 19 21
M  V30 21 2 21 22
M  V30 22 1 22 2
M  V30 23 1 14 4
M  V30 24 1 22 15
M  V30 25 1 14 8
M  V30 26 1 1 23
M  V30 27 1 1 24
M  V30 28 1 3 25
M  V30 29 1 3 26
M  V30 30 1 4 27 CFG=3
M  V30 31 1 5 28 CFG=1
M  V30 32 1 6 29
M  V30 33 1 6 30
M  V30 34 1 7 31
M  V30 35 1 7 32
M  V30 36 1 9 33
M  V30 37 1 9 34
M  V30 38 1 9 35
M  V30 39 1 12 36
M  V30 40 1 12 37
M  V30 41 1 13 38
M  V30 42 1 13 39
M  V30 43 1 14 40 CFG=1
M  V30 44 1 16 41
M  V30 45 1 16 42
M  V30 46 1 16 43
M  V30 47 1 17 44
M  V30 48 1 18 45
M  V30 49 1 21 46
M  V30 END BOND
M  V30 END CTAB
M  END
>  <Dataset>  (374) 
OralDrugs

>  <Ligand_Instance>  (374) 
nan

>  <PDB_ID>  (374) 
nan

>  <Standardized_SMILES>  (374) 
C=C1C[C@@H]2[C@H](CC[C@]3(C)C(=O)CC[C@@H]23)[C@@]2(C)C=CC(=O)C=C12

>  <Name>  (374) 
Exemestane

>  <Pocket>  (374) 
nan

>  <ATP_Site>  (374) 
nan

>  <Peripheral>  (374) 
nan

>  <Num_H_Atoms_ProtBoundConf>  (374) 
nan

>  <Num_Resolved_Atoms>  (374) 
nan

>  <Num_Not_Resolved_Atoms>  (374) 
nan

$$$$
CHEMBL1138
     RDKit          3D

  0  0  0  0  0  0  0  0  0  0999 V3000
M  V30 BEGIN CTAB
M  V30 COUNTS 51 54 0 0 0
M  V30 BEGIN ATOM
M  V30 1 O -0.122931 -0.368617 -2.077077 0
M  V30 2 C -0.038207 -0.940302 -0.947317 0
M  V30 3 C 0.292873 -0.472183 0.447079 0 CFG=2
M  V30 4 C 1.770573 -0.356855 0.567525 0
M  V30 5 C 2.314583 0.085354 1.866915 0
M  V30 6 C 1.923184 1.411369 2.382318 0 CFG=2
M  V30 7 O 0.529880 1.489540 2.550949 0
M  V30 8 C 2.434823 2.585336 1.679351 0
M  V30 9 C 1.800112 3.740632 2.157532 0
M  V30 10 C 2.123490 5.001260 1.642384 0
M  V30 11 C 3.072344 5.148476 0.652349 0
M  V30 12 F 3.395637 6.357551 0.144694 0
M  V30 13 C 3.686803 4.002186 0.193713 0
M  V30 14 C 3.380666 2.752951 0.689750 0
M  V30 15 C -0.333907 -1.752605 0.865758 0 CFG=1
M  V30 16 C -1.768628 -1.587425 1.260366 0
M  V30 17 C -2.708586 -1.022563 0.429257 0
M  V30 18 C -4.032465 -0.868027 0.788759 0
M  V30 19 C -4.434242 -1.302857 2.047659 0
M  V30 20 O -5.760527 -1.171015 2.462655 0
M  V30 21 C -3.490780 -1.868516 2.878727 0
M  V30 22 C -2.156211 -2.028318 2.525927 0
M  V30 23 N -0.209452 -2.260819 -0.463103 0
M  V30 24 C -0.246227 -3.552077 -1.029861 0
M  V30 25 C -1.494684 -4.011792 -1.431628 0
M  V30 26 C -1.544889 -5.273947 -1.987929 0
M  V30 27 C -0.432209 -6.078059 -2.157042 0
M  V30 28 F -0.490054 -7.316595 -2.704323 0
M  V30 29 C 0.806987 -5.583642 -1.741703 0
M  V30 30 C 0.876673 -4.329883 -1.185894 0
M  V30 31 H -0.272850 0.454585 0.667648 0
M  V30 32 H 2.245496 -1.360348 0.345718 0
M  V30 33 H 2.123341 0.283624 -0.265993 0
M  V30 34 H 3.440753 0.070147 1.760959 0
M  V30 35 H 2.124134 -0.672852 2.669700 0
M  V30 36 H 2.313820 1.500281 3.444874 0
M  V30 37 H 0.224086 0.799815 3.190614 0
M  V30 38 H 1.025366 3.814873 2.937366 0
M  V30 39 H 1.662935 5.919999 1.977540 0
M  V30 40 H 4.442620 4.018936 -0.580128 0
M  V30 41 H 3.811555 1.807052 0.396069 0
M  V30 42 H 0.246244 -2.369813 1.589595 0
M  V30 43 H -2.440664 -0.671354 -0.556821 0
M  V30 44 H -4.738917 -0.418679 0.104917 0
M  V30 45 H -6.430496 -0.792755 1.802992 0
M  V30 46 H -3.828406 -2.205391 3.868526 0
M  V30 47 H -1.475036 -2.482524 3.235281 0
M  V30 48 H -2.440034 -3.486552 -1.356544 0
M  V30 49 H -2.480305 -5.722515 -2.334179 0
M  V30 50 H 1.730901 -6.132441 -1.830491 0
M  V30 51 H 1.818530 -3.909353 -0.850777 0
M  V30 END ATOM
M  V30 BEGIN BOND
M  V30 1 2 1 2
M  V30 2 1 2 3
M  V30 3 1 3 4
M  V30 4 1 4 5
M  V30 5 1 5 6
M  V30 6 1 6 7
M  V30 7 1 6 8
M  V30 8 2 8 9
M  V30 9 1 9 10
M  V30 10 2 10 11
M  V30 11 1 11 12
M  V30 12 1 11 13
M  V30 13 2 13 14
M  V30 14 1 3 15
M  V30 15 1 15 16
M  V30 16 2 16 17
M  V30 17 1 17 18
M  V30 18 2 18 19
M  V30 19 1 19 20
M  V30 20 1 19 21
M  V30 21 2 21 22
M  V30 22 1 15 23
M  V30 23 1 23 24
M  V30 24 2 24 25
M  V30 25 1 25 26
M  V30 26 2 26 27
M  V30 27 1 27 28
M  V30 28 1 27 29
M  V30 29 2 29 30
M  V30 30 1 23 2
M  V30 31 1 30 24
M  V30 32 1 14 8
M  V30 33 1 22 16
M  V30 34 1 3 31 CFG=1
M  V30 35 1 4 32
M  V30 36 1 4 33
M  V30 37 1 5 34
M  V30 38 1 5 35
M  V30 39 1 6 36 CFG=1
M  V30 40 1 7 37
M  V30 41 1 9 38
M  V30 42 1 10 39
M  V30 43 1 13 40
M  V30 44 1 14 41
M  V30 45 1 15 42 CFG=1
M  V30 46 1 17 43
M  V30 47 1 18 44
M  V30 48 1 20 45
M  V30 49 1 21 46
M  V30 50 1 22 47
M  V30 51 1 25 48
M  V30 52 1 26 49
M  V30 53 1 29 50
M  V30 54 1 30 51
M  V30 END BOND
M  V30 END CTAB
M  END
>  <Dataset>  (375) 
OralDrugs

>  <Ligand_Instance>  (375) 
nan

>  <PDB_ID>  (375) 
nan

>  <Standardized_SMILES>  (375) 
O=C1[C@H](CC[C@H](O)c2ccc(F)cc2)[C@@H](c2ccc(O)cc2)N1c1ccc(F)cc1

>  <Name>  (375) 
Ezetimibe

>  <Pocket>  (375) 
nan

>  <ATP_Site>  (375) 
nan

>  <Peripheral>  (375) 
nan

>  <Num_H_Atoms_ProtBoundConf>  (375) 
nan

>  <Num_Resolved_Atoms>  (375) 
nan

>  <Num_Not_Resolved_Atoms>  (375) 
nan

$$$$
CHEMBL41355
     RDKit          3D

  0  0  0  0  0  0  0  0  0  0999 V3000
M  V30 BEGIN CTAB
M  V30 COUNTS 40 41 0 0 0
M  V30 BEGIN ATOM
M  V30 1 C -1.147515 -6.901319 2.328869 0
M  V30 2 C -0.019847 -6.417132 3.196860 0
M  V30 3 O -0.169729 -4.999447 3.366566 0
M  V30 4 C -0.162533 -4.127160 2.317291 0
M  V30 5 O -0.012485 -4.710576 1.221884 0
M  V30 6 N -0.304286 -2.724609 2.409306 0
M  V30 7 C -0.303591 -1.780627 1.355260 0
M  V30 8 C -0.162084 -2.052839 0.019888 0
M  V30 9 C -0.165802 -1.115314 -0.979936 0
M  V30 10 C -0.324449 0.232707 -0.642802 0
M  V30 11 N -0.357964 1.291966 -1.570634 0
M  V30 12 C -0.478581 2.729638 -1.520617 0
M  V30 13 C 0.660640 3.407424 -0.897877 0
M  V30 14 C 0.937301 3.873353 0.363989 0
M  V30 15 C 2.136000 4.470895 0.676734 0
M  V30 16 C 3.145011 4.647315 -0.246638 0
M  V30 17 F 4.267445 5.239821 0.166152 0
M  V30 18 C 2.894094 4.188504 -1.524872 0
M  V30 19 C 1.675926 3.578807 -1.850533 0
M  V30 20 C -0.466351 0.507004 0.692062 0
M  V30 21 C -0.459087 -0.455791 1.680426 0
M  V30 22 N -0.614138 -0.090578 3.069544 0
M  V30 23 H -0.729841 -7.012702 1.293622 0
M  V30 24 H -1.958651 -6.138912 2.273871 0
M  V30 25 H -1.574727 -7.874937 2.648632 0
M  V30 26 H -0.032463 -6.841105 4.224867 0
M  V30 27 H 0.982145 -6.567852 2.726459 0
M  V30 28 H -0.416906 -2.429329 3.390006 0
M  V30 29 H -0.036328 -3.056322 -0.319515 0
M  V30 30 H -0.051580 -1.364124 -2.025452 0
M  V30 31 H -0.266750 0.908981 -2.558737 0
M  V30 32 H -0.730792 3.105173 -2.515477 0
M  V30 33 H -1.359252 2.910142 -0.824919 0
M  V30 34 H 0.118643 3.721307 1.034275 0
M  V30 35 H 2.233725 4.795339 1.704131 0
M  V30 36 H 3.703844 4.341748 -2.224449 0
M  V30 37 H 1.669822 3.286927 -2.902027 0
M  V30 38 H -0.601295 1.513160 1.055921 0
M  V30 39 H 0.203258 -0.258943 3.698669 0
M  V30 40 H -1.517346 0.320963 3.395029 0
M  V30 END ATOM
M  V30 BEGIN BOND
M  V30 1 1 1 2
M  V30 2 1 2 3
M  V30 3 1 3 4
M  V30 4 2 4 5
M  V30 5 1 4 6
M  V30 6 1 6 7
M  V30 7 2 7 8
M  V30 8 1 8 9
M  V30 9 2 9 10
M  V30 10 1 10 11
M  V30 11 1 11 12
M  V30 12 1 12 13
M  V30 13 2 13 14
M  V30 14 1 14 15
M  V30 15 2 15 16
M  V30 16 1 16 17
M  V30 17 1 16 18
M  V30 18 2 18 19
M  V30 19 1 10 20
M  V30 20 2 20 21
M  V30 21 1 21 22
M  V30 22 1 21 7
M  V30 23 1 19 13
M  V30 24 1 1 23
M  V30 25 1 1 24
M  V30 26 1 1 25
M  V30 27 1 2 26
M  V30 28 1 2 27
M  V30 29 1 6 28
M  V30 30 1 8 29
M  V30 31 1 9 30
M  V30 32 1 11 31
M  V30 33 1 12 32
M  V30 34 1 12 33
M  V30 35 1 14 34
M  V30 36 1 15 35
M  V30 37 1 18 36
M  V30 38 1 19 37
M  V30 39 1 20 38
M  V30 40 1 22 39
M  V30 41 1 22 40
M  V30 END BOND
M  V30 END CTAB
M  END
>  <Dataset>  (376) 
OralDrugs

>  <Ligand_Instance>  (376) 
nan

>  <PDB_ID>  (376) 
nan

>  <Standardized_SMILES>  (376) 
CCOC(=O)Nc1ccc(NCc2ccc(F)cc2)cc1N

>  <Name>  (376) 
Ezogabine

>  <Pocket>  (376) 
nan

>  <ATP_Site>  (376) 
nan

>  <Peripheral>  (376) 
nan

>  <Num_H_Atoms_ProtBoundConf>  (376) 
nan

>  <Num_Resolved_Atoms>  (376) 
nan

>  <Num_Not_Resolved_Atoms>  (376) 
nan

$$$$
CHEMBL902
     RDKit          3D

  0  0  0  0  0  0  0  0  0  0999 V3000
M  V30 BEGIN CTAB
M  V30 COUNTS 35 35 0 0 0
M  V30 BEGIN ATOM
M  V30 1 N 1.822905 -1.184477 4.969566 0
M  V30 2 C 1.573340 -2.158415 3.963384 0
M  V30 3 N 1.938419 -3.472898 4.350268 0
M  V30 4 N 1.089183 -1.357307 3.077257 0
M  V30 5 C 0.705377 -2.062663 1.843290 0
M  V30 6 N 0.254223 -1.654120 0.876054 0
M  V30 7 C -0.098578 -2.260909 -0.234437 0
M  V30 8 C -0.695453 -1.716189 -1.511548 0
M  V30 9 S 0.632325 -1.277806 -2.633283 0
M  V30 10 C 1.607800 0.110161 -2.098337 0
M  V30 11 C 0.904028 1.413976 -2.177093 0
M  V30 12 C -0.284122 1.512200 -1.331872 0
M  V30 13 N -1.611361 1.824600 -1.801174 0
M  V30 14 N -0.111653 1.324977 -0.078093 0
M  V30 15 S -1.350554 1.391536 1.100214 0
M  V30 16 N -2.081551 2.956193 1.112780 0
M  V30 17 O -2.414718 0.388603 0.852719 0
M  V30 18 O -0.764277 1.163201 2.464441 0
M  V30 19 C 0.143795 -3.684221 -0.176052 0
M  V30 20 S 0.849179 -3.911001 1.494290 0
M  V30 21 H 1.622965 -0.903184 5.955576 0
M  V30 22 H 2.350409 -0.290005 5.130549 0
M  V30 23 H 1.100781 -4.024249 4.633837 0
M  V30 24 H 1.119909 -4.028217 4.632795 0
M  V30 25 H -1.368468 -2.485225 -1.965134 0
M  V30 26 H -1.339858 -0.855264 -1.312396 0
M  V30 27 H 2.537505 0.179705 -2.737255 0
M  V30 28 H 1.942447 -0.028270 -1.017457 0
M  V30 29 H 0.552266 1.547261 -3.233646 0
M  V30 30 H 1.623928 2.254794 -1.994706 0
M  V30 31 H -1.878220 2.756921 -2.188240 0
M  V30 32 H -2.469637 1.223493 -1.834366 0
M  V30 33 H -1.396813 3.702292 0.845445 0
M  V30 34 H -2.550205 3.160495 2.022123 0
M  V30 35 H -0.061156 -4.427441 -0.970211 0
M  V30 END ATOM
M  V30 BEGIN BOND
M  V30 1 1 1 2
M  V30 2 1 2 3
M  V30 3 2 2 4 CFG=2
M  V30 4 1 4 5
M  V30 5 2 5 6
M  V30 6 1 6 7
M  V30 7 1 7 8
M  V30 8 1 8 9
M  V30 9 1 9 10
M  V30 10 1 10 11
M  V30 11 1 11 12
M  V30 12 1 12 13
M  V30 13 2 12 14
M  V30 14 1 14 15
M  V30 15 1 15 16
M  V30 16 2 15 17
M  V30 17 2 15 18
M  V30 18 2 7 19
M  V30 19 1 19 20
M  V30 20 1 20 5
M  V30 21 1 1 21
M  V30 22 1 1 22
M  V30 23 1 3 23
M  V30 24 1 3 24
M  V30 25 1 8 25
M  V30 26 1 8 26
M  V30 27 1 10 27
M  V30 28 1 10 28
M  V30 29 1 11 29
M  V30 30 1 11 30
M  V30 31 1 13 31
M  V30 32 1 13 32
M  V30 33 1 16 33
M  V30 34 1 16 34
M  V30 35 1 19 35
M  V30 END BOND
M  V30 END CTAB
M  END
>  <Dataset>  (377) 
OralDrugs

>  <Ligand_Instance>  (377) 
nan

>  <PDB_ID>  (377) 
nan

>  <Standardized_SMILES>  (377) 
NC(N)=Nc1nc(CSCC/C(N)=N/S(N)(=O)=O)cs1

>  <Name>  (377) 
Famotidine

>  <Pocket>  (377) 
nan

>  <ATP_Site>  (377) 
nan

>  <Peripheral>  (377) 
nan

>  <Num_H_Atoms_ProtBoundConf>  (377) 
nan

>  <Num_Resolved_Atoms>  (377) 
nan

>  <Num_Not_Resolved_Atoms>  (377) 
nan

$$$$
CHEMBL1164729
     RDKit          3D

  0  0  0  0  0  0  0  0  0  0999 V3000
M  V30 BEGIN CTAB
M  V30 COUNTS 38 39 0 0 0
M  V30 BEGIN ATOM
M  V30 1 C -2.919104 -4.552828 2.560278 0
M  V30 2 C -2.086581 -3.461338 3.140199 0
M  V30 3 N -1.412192 -2.485936 2.995632 0
M  V30 4 C -0.763656 -1.548107 2.857816 0
M  V30 5 C -0.170450 -0.561270 1.898348 0
M  V30 6 C -0.416530 -0.725952 0.549940 0
M  V30 7 C 0.166948 0.251360 -0.215571 0
M  V30 8 C 0.937623 1.330787 0.184644 0
M  V30 9 O 1.492366 2.284461 -0.632199 0
M  V30 10 C 1.419335 2.343476 -2.021757 0
M  V30 11 C 2.081325 1.309198 -2.833489 0
M  V30 12 C 1.778535 1.682833 -4.304486 0
M  V30 13 C 3.603560 1.369146 -2.654404 0
M  V30 14 C 1.097516 1.363728 1.557015 0
M  V30 15 C 1.875321 2.419066 2.156411 0
M  V30 16 N 2.526851 3.273491 2.653641 0
M  V30 17 C 0.568057 0.448303 2.457456 0
M  V30 18 S -0.817379 -1.876474 4.576571 0
M  V30 19 C -1.862334 -3.344506 4.500236 0
M  V30 20 C -2.330502 -4.170526 5.656138 0
M  V30 21 O -3.066125 -5.175899 5.534629 0
M  V30 22 O -2.163042 -4.138981 7.011967 0
M  V30 23 H -3.001106 -4.345154 1.461790 0
M  V30 24 H -3.916444 -4.594824 3.040748 0
M  V30 25 H -2.441810 -5.555376 2.742482 0
M  V30 26 H -0.999619 -1.534619 0.159513 0
M  V30 27 H -0.055458 0.118596 -1.269352 0
M  V30 28 H 0.308202 2.318958 -2.288356 0
M  V30 29 H 1.746933 3.369156 -2.386173 0
M  V30 30 H 1.699409 0.311603 -2.654393 0
M  V30 31 H 0.714305 1.414444 -4.484078 0
M  V30 32 H 1.817232 2.785130 -4.444330 0
M  V30 33 H 2.414938 1.160240 -5.011788 0
M  V30 34 H 3.757129 1.482083 -1.543676 0
M  V30 35 H 4.050377 2.240785 -3.127387 0
M  V30 36 H 4.013565 0.397029 -2.938432 0
M  V30 37 H 0.732058 0.535602 3.525045 0
M  V30 38 H -2.904536 -3.958823 7.671554 0
M  V30 END ATOM
M  V30 BEGIN BOND
M  V30 1 1 1 2
M  V30 2 1 2 3
M  V30 3 2 3 4
M  V30 4 1 4 5
M  V30 5 2 5 6
M  V30 6 1 6 7
M  V30 7 2 7 8
M  V30 8 1 8 9
M  V30 9 1 9 10
M  V30 10 1 10 11
M  V30 11 1 11 12
M  V30 12 1 11 13
M  V30 13 1 8 14
M  V30 14 1 14 15
M  V30 15 3 15 16
M  V30 16 2 14 17
M  V30 17 1 4 18
M  V30 18 1 18 19
M  V30 19 1 19 20
M  V30 20 2 20 21
M  V30 21 1 20 22
M  V30 22 2 19 2
M  V30 23 1 17 5
M  V30 24 1 1 23
M  V30 25 1 1 24
M  V30 26 1 1 25
M  V30 27 1 6 26
M  V30 28 1 7 27
M  V30 29 1 10 28
M  V30 30 1 10 29
M  V30 31 1 11 30
M  V30 32 1 12 31
M  V30 33 1 12 32
M  V30 34 1 12 33
M  V30 35 1 13 34
M  V30 36 1 13 35
M  V30 37 1 13 36
M  V30 38 1 17 37
M  V30 39 1 22 38
M  V30 END BOND
M  V30 END CTAB
M  END
>  <Dataset>  (378) 
OralDrugs

>  <Ligand_Instance>  (378) 
nan

>  <PDB_ID>  (378) 
nan

>  <Standardized_SMILES>  (378) 
Cc1nc(-c2ccc(OCC(C)C)c(C#N)c2)sc1C(=O)O

>  <Name>  (378) 
Febuxostat

>  <Pocket>  (378) 
nan

>  <ATP_Site>  (378) 
nan

>  <Peripheral>  (378) 
nan

>  <Num_H_Atoms_ProtBoundConf>  (378) 
nan

>  <Num_Resolved_Atoms>  (378) 
nan

>  <Num_Not_Resolved_Atoms>  (378) 
nan

$$$$
CHEMBL1287853
     RDKit          3D

  0  0  0  0  0  0  0  0  0  0999 V3000
M  V30 BEGIN CTAB
M  V30 COUNTS 73 76 0 0 0
M  V30 BEGIN ATOM
M  V30 1 C 2.670109 -3.800443 4.811923 0
M  V30 2 C 2.795712 -2.393248 4.405098 0
M  V30 3 C 2.925116 -1.290231 5.222581 0
M  V30 4 N 3.030483 -0.068078 4.724819 0
M  V30 5 C 3.017947 0.186967 3.385670 0
M  V30 6 N 3.104794 1.474071 2.761309 0
M  V30 7 C 1.840627 2.026610 2.422226 0
M  V30 8 C 0.681434 1.365630 2.765957 0
M  V30 9 C -0.568230 1.895431 2.416146 0
M  V30 10 C -0.592081 3.088128 1.724155 0
M  V30 11 O -1.701113 3.629370 1.371097 0
M  V30 12 C -2.825370 4.176564 1.014054 0
M  V30 13 C -3.747351 3.367910 0.097786 0
M  V30 14 N -3.113769 3.055631 -1.149322 0
M  V30 15 C -2.056085 2.125800 -1.030343 0
M  V30 16 C -2.155262 1.103798 -2.151980 0
M  V30 17 C -3.412524 1.437595 -2.881705 0
M  V30 18 C -4.070705 2.518790 -2.079282 0
M  V30 19 C 0.587608 3.757589 1.377478 0
M  V30 20 C 1.830400 3.218700 1.731976 0
M  V30 21 N 2.891738 -0.877145 2.538904 0
M  V30 22 C 2.783458 -2.134672 3.043126 0
M  V30 23 N 2.646225 -3.088168 1.975143 0
M  V30 24 C 1.304667 -3.223678 1.561709 0
M  V30 25 C 0.224442 -2.637176 2.184630 0
M  V30 26 C -1.102094 -2.716661 1.830874 0
M  V30 27 C -1.367058 -3.486866 0.704975 0
M  V30 28 C -0.351922 -4.116937 0.008708 0
M  V30 29 S -0.830440 -5.051685 -1.388924 0
M  V30 30 O 0.102360 -6.221547 -1.496318 0
M  V30 31 O -2.194820 -5.651240 -1.094229 0
M  V30 32 N -0.971269 -4.142898 -2.793553 0
M  V30 33 C 0.163573 -3.477711 -3.306624 0
M  V30 34 C 0.812009 -2.467583 -2.419335 0
M  V30 35 C -0.331470 -2.730383 -4.560608 0
M  V30 36 C 1.238522 -4.404776 -3.837479 0
M  V30 37 C 0.946331 -3.969807 0.452346 0
M  V30 38 H 3.026113 -4.468617 4.026933 0
M  V30 39 H 3.355480 -3.977560 5.690901 0
M  V30 40 H 1.622977 -3.999315 5.140763 0
M  V30 41 H 2.936594 -1.485183 6.284041 0
M  V30 42 H 4.000057 1.964759 2.572329 0
M  V30 43 H 0.667698 0.415244 3.316375 0
M  V30 44 H -1.486051 1.374818 2.685837 0
M  V30 45 H -2.644935 5.140783 0.441077 0
M  V30 46 H -3.459688 4.431491 1.920411 0
M  V30 47 H -4.014305 2.459837 0.686711 0
M  V30 48 H -4.679676 3.964967 -0.037928 0
M  V30 49 H -2.213176 1.559579 -0.076029 0
M  V30 50 H -1.065981 2.627364 -1.067661 0
M  V30 51 H -2.240190 0.054601 -1.752494 0
M  V30 52 H -1.250579 1.123115 -2.814763 0
M  V30 53 H -4.116862 0.562804 -2.913516 0
M  V30 54 H -3.247791 1.702185 -3.948217 0
M  V30 55 H -4.904472 2.092986 -1.448897 0
M  V30 56 H -4.516687 3.314468 -2.725279 0
M  V30 57 H 0.574692 4.690873 0.837551 0
M  V30 58 H 2.747576 3.732383 1.464811 0
M  V30 59 H 3.358702 -3.657070 1.494936 0
M  V30 60 H 0.416722 -2.026551 3.074329 0
M  V30 61 H -1.874703 -2.214362 2.391792 0
M  V30 62 H -2.407376 -3.565425 0.404029 0
M  V30 63 H -1.543521 -4.533230 -3.543326 0
M  V30 64 H 1.049198 -1.560008 -3.011489 0
M  V30 65 H 0.148286 -2.104268 -1.607223 0
M  V30 66 H 1.786463 -2.859683 -2.075299 0
M  V30 67 H -1.377272 -2.387282 -4.440541 0
M  V30 68 H -0.268058 -3.335917 -5.463510 0
M  V30 69 H 0.281589 -1.821622 -4.734037 0
M  V30 70 H 0.976628 -4.783776 -4.857586 0
M  V30 71 H 1.560549 -5.173173 -3.134946 0
M  V30 72 H 2.137511 -3.750569 -4.020958 0
M  V30 73 H 1.699233 -4.491920 -0.138987 0
M  V30 END ATOM
M  V30 BEGIN BOND
M  V30 1 1 1 2
M  V30 2 2 2 3
M  V30 3 1 3 4
M  V30 4 2 4 5
M  V30 5 1 5 6
M  V30 6 1 6 7
M  V30 7 2 7 8
M  V30 8 1 8 9
M  V30 9 2 9 10
M  V30 10 1 10 11
M  V30 11 1 11 12
M  V30 12 1 12 13
M  V30 13 1 13 14
M  V30 14 1 14 15
M  V30 15 1 15 16
M  V30 16 1 16 17
M  V30 17 1 17 18
M  V30 18 1 10 19
M  V30 19 2 19 20
M  V30 20 1 5 21
M  V30 21 2 21 22
M  V30 22 1 22 23
M  V30 23 1 23 24
M  V30 24 2 24 25
M  V30 25 1 25 26
M  V30 26 2 26 27
M  V30 27 1 27 28
M  V30 28 1 28 29
M  V30 29 2 29 30
M  V30 30 2 29 31
M  V30 31 1 29 32
M  V30 32 1 32 33
M  V30 33 1 33 34
M  V30 34 1 33 35
M  V30 35 1 33 36
M  V30 36 2 28 37
M  V30 37 1 22 2
M  V30 38 1 37 24
M  V30 39 1 20 7
M  V30 40 1 18 14
M  V30 41 1 1 38
M  V30 42 1 1 39
M  V30 43 1 1 40
M  V30 44 1 3 41
M  V30 45 1 6 42
M  V30 46 1 8 43
M  V30 47 1 9 44
M  V30 48 1 12 45
M  V30 49 1 12 46
M  V30 50 1 13 47
M  V30 51 1 13 48
M  V30 52 1 15 49
M  V30 53 1 15 50
M  V30 54 1 16 51
M  V30 55 1 16 52
M  V30 56 1 17 53
M  V30 57 1 17 54
M  V30 58 1 18 55
M  V30 59 1 18 56
M  V30 60 1 19 57
M  V30 61 1 20 58
M  V30 62 1 23 59
M  V30 63 1 25 60
M  V30 64 1 26 61
M  V30 65 1 27 62
M  V30 66 1 32 63
M  V30 67 1 34 64
M  V30 68 1 34 65
M  V30 69 1 34 66
M  V30 70 1 35 67
M  V30 71 1 35 68
M  V30 72 1 35 69
M  V30 73 1 36 70
M  V30 74 1 36 71
M  V30 75 1 36 72
M  V30 76 1 37 73
M  V30 END BOND
M  V30 END CTAB
M  END
>  <Dataset>  (379) 
OralDrugs

>  <Ligand_Instance>  (379) 
nan

>  <PDB_ID>  (379) 
nan

>  <Standardized_SMILES>  (379) 
Cc1cnc(Nc2ccc(OCCN3CCCC3)cc2)nc1Nc1cccc(S(=O)(=O)NC(C)(C)C)c1

>  <Name>  (379) 
Fedratinib

>  <Pocket>  (379) 
nan

>  <ATP_Site>  (379) 
nan

>  <Peripheral>  (379) 
nan

>  <Num_H_Atoms_ProtBoundConf>  (379) 
nan

>  <Num_Resolved_Atoms>  (379) 
nan

>  <Num_Not_Resolved_Atoms>  (379) 
nan

$$$$
CHEMBL1094
     RDKit          3D

  0  0  0  0  0  0  0  0  0  0999 V3000
M  V30 BEGIN CTAB
M  V30 COUNTS 31 31 0 0 0
M  V30 BEGIN ATOM
M  V30 1 N 0.284111 -4.956289 0.326564 0
M  V30 2 C 0.950263 -3.892470 1.015816 0
M  V30 3 O 1.948910 -3.962545 1.777660 0
M  V30 4 O 0.358623 -2.661449 0.758397 0
M  V30 5 C 0.825504 -1.457178 1.316228 0
M  V30 6 C -0.077541 -0.349185 0.797657 0
M  V30 7 C 0.032624 -0.345818 -0.715333 0
M  V30 8 O -0.370814 -1.576902 -1.240372 0
M  V30 9 C -1.645025 -2.071627 -1.049487 0
M  V30 10 N -1.993883 -3.343693 -1.615344 0
M  V30 11 O -2.548173 -1.501830 -0.413629 0
M  V30 12 C 0.369133 0.978804 1.345233 0
M  V30 13 C 1.636368 1.477710 1.137555 0
M  V30 14 C 2.094903 2.673920 1.609709 0
M  V30 15 C 1.204021 3.446078 2.360775 0
M  V30 16 C -0.079212 2.998123 2.601916 0
M  V30 17 C -0.475060 1.778294 2.093466 0
M  V30 18 H 0.778688 -5.075242 -0.586932 0
M  V30 19 H -0.531047 -5.564622 0.570663 0
M  V30 20 H 0.890712 -1.470898 2.407206 0
M  V30 21 H 1.824935 -1.246278 0.875558 0
M  V30 22 H -1.118963 -0.487042 1.114948 0
M  V30 23 H 1.064629 -0.155691 -1.055478 0
M  V30 24 H -0.569642 0.498938 -1.124996 0
M  V30 25 H -2.579062 -4.013995 -1.045561 0
M  V30 26 H -1.622414 -3.498541 -2.579381 0
M  V30 27 H 2.350515 0.901341 0.558443 0
M  V30 28 H 3.068221 3.074620 1.459638 0
M  V30 29 H 1.412375 4.412410 2.803139 0
M  V30 30 H -0.849573 3.498998 3.161480 0
M  V30 31 H -1.479487 1.367745 2.249924 0
M  V30 END ATOM
M  V30 BEGIN BOND
M  V30 1 1 1 2
M  V30 2 2 2 3
M  V30 3 1 2 4
M  V30 4 1 4 5
M  V30 5 1 5 6
M  V30 6 1 6 7
M  V30 7 1 7 8
M  V30 8 1 8 9
M  V30 9 1 9 10
M  V30 10 2 9 11
M  V30 11 1 6 12
M  V30 12 2 12 13
M  V30 13 1 13 14
M  V30 14 2 14 15
M  V30 15 1 15 16
M  V30 16 2 16 17
M  V30 17 1 17 12
M  V30 18 1 1 18
M  V30 19 1 1 19
M  V30 20 1 5 20
M  V30 21 1 5 21
M  V30 22 1 6 22
M  V30 23 1 7 23
M  V30 24 1 7 24
M  V30 25 1 10 25
M  V30 26 1 10 26
M  V30 27 1 13 27
M  V30 28 1 14 28
M  V30 29 1 15 29
M  V30 30 1 16 30
M  V30 31 1 17 31
M  V30 END BOND
M  V30 END CTAB
M  END
>  <Dataset>  (380) 
OralDrugs

>  <Ligand_Instance>  (380) 
nan

>  <PDB_ID>  (380) 
nan

>  <Standardized_SMILES>  (380) 
NC(=O)OCC(COC(N)=O)c1ccccc1

>  <Name>  (380) 
Felbamate

>  <Pocket>  (380) 
nan

>  <ATP_Site>  (380) 
nan

>  <Peripheral>  (380) 
nan

>  <Num_H_Atoms_ProtBoundConf>  (380) 
nan

>  <Num_Resolved_Atoms>  (380) 
nan

>  <Num_Not_Resolved_Atoms>  (380) 
nan

$$$$
CHEMBL1480
     RDKit          3D

  0  0  0  0  0  0  0  0  0  0999 V3000
M  V30 BEGIN CTAB
M  V30 COUNTS 44 45 0 0 0
M  V30 BEGIN ATOM
M  V30 1 C -1.687562 -2.649539 4.572272 0
M  V30 2 C -2.271617 -1.386313 3.922868 0
M  V30 3 O -1.326257 -0.985990 2.960651 0
M  V30 4 C -1.533943 0.126367 2.175368 0
M  V30 5 O -2.610915 0.249436 2.789281 0
M  V30 6 C -0.596770 0.592499 1.165288 0
M  V30 7 C -0.846755 1.650067 0.439032 0
M  V30 8 C -2.090173 2.497641 0.507912 0
M  V30 9 N 0.159633 2.300561 -0.330083 0
M  V30 10 C 1.455942 1.677670 -0.206869 0
M  V30 11 C 2.629274 2.256565 -0.928942 0
M  V30 12 C 1.756866 0.610261 0.495485 0
M  V30 13 C 3.059037 -0.021371 0.673477 0
M  V30 14 O 4.154769 0.277096 0.171038 0
M  V30 15 O 3.230189 -1.133147 1.519925 0
M  V30 16 C 4.485984 -1.737817 1.700119 0
M  V30 17 C 0.577525 -0.233234 0.934059 0
M  V30 18 C 0.363501 -1.128856 -0.271825 0
M  V30 19 C 1.350011 -1.765083 -0.983681 0
M  V30 20 C 1.231189 -2.571007 -2.071395 0
M  V30 21 C -0.030152 -2.821808 -2.577170 0
M  V30 22 C -1.101420 -2.210674 -1.911511 0
M  V30 23 Cl -2.655577 -2.597406 -2.638158 0
M  V30 24 C -0.870965 -1.414551 -0.821555 0
M  V30 25 Cl -2.400752 -0.824344 -0.276158 0
M  V30 26 H -1.645449 -3.450044 3.787261 0
M  V30 27 H -0.650154 -2.486336 4.932275 0
M  V30 28 H -2.285041 -2.986560 5.430926 0
M  V30 29 H -3.252513 -1.663717 3.535672 0
M  V30 30 H -2.428384 -0.629687 4.728463 0
M  V30 31 H -2.766579 2.113644 1.316094 0
M  V30 32 H -1.880570 3.563621 0.600657 0
M  V30 33 H -2.649418 2.359313 -0.440499 0
M  V30 34 H 0.082846 3.137340 -0.947276 0
M  V30 35 H 3.347738 2.563836 -0.156008 0
M  V30 36 H 2.309110 3.159554 -1.495415 0
M  V30 37 H 3.006410 1.541158 -1.663297 0
M  V30 38 H 4.811219 -2.327456 0.809930 0
M  V30 39 H 4.502650 -2.310237 2.644278 0
M  V30 40 H 5.248700 -0.925902 1.847741 0
M  V30 41 H 0.900054 -0.874813 1.749931 0
M  V30 42 H 2.400149 -1.694128 -0.767156 0
M  V30 43 H 2.056471 -3.054122 -2.600791 0
M  V30 44 H -0.140414 -3.463310 -3.444624 0
M  V30 END ATOM
M  V30 BEGIN BOND
M  V30 1 1 1 2
M  V30 2 1 2 3
M  V30 3 1 3 4
M  V30 4 2 4 5
M  V30 5 1 4 6
M  V30 6 2 6 7
M  V30 7 1 7 8
M  V30 8 1 7 9
M  V30 9 1 9 10
M  V30 10 1 10 11
M  V30 11 2 10 12
M  V30 12 1 12 13
M  V30 13 2 13 14
M  V30 14 1 13 15
M  V30 15 1 15 16
M  V30 16 1 12 17
M  V30 17 1 17 18
M  V30 18 2 18 19
M  V30 19 1 19 20
M  V30 20 2 20 21
M  V30 21 1 21 22
M  V30 22 1 22 23
M  V30 23 2 22 24
M  V30 24 1 24 25
M  V30 25 1 17 6
M  V30 26 1 24 18
M  V30 27 1 1 26
M  V30 28 1 1 27
M  V30 29 1 1 28
M  V30 30 1 2 29
M  V30 31 1 2 30
M  V30 32 1 8 31
M  V30 33 1 8 32
M  V30 34 1 8 33
M  V30 35 1 9 34
M  V30 36 1 11 35
M  V30 37 1 11 36
M  V30 38 1 11 37
M  V30 39 1 16 38
M  V30 40 1 16 39
M  V30 41 1 16 40
M  V30 42 1 17 41
M  V30 43 1 19 42
M  V30 44 1 20 43
M  V30 45 1 21 44
M  V30 END BOND
M  V30 END CTAB
M  END
>  <Dataset>  (381) 
OralDrugs

>  <Ligand_Instance>  (381) 
nan

>  <PDB_ID>  (381) 
nan

>  <Standardized_SMILES>  (381) 
CCOC(=O)C1=C(C)NC(C)=C(C(=O)OC)C1c1cccc(Cl)c1Cl

>  <Name>  (381) 
Felodipine

>  <Pocket>  (381) 
nan

>  <ATP_Site>  (381) 
nan

>  <Peripheral>  (381) 
nan

>  <Num_H_Atoms_ProtBoundConf>  (381) 
nan

>  <Num_Resolved_Atoms>  (381) 
nan

>  <Num_Not_Resolved_Atoms>  (381) 
nan

$$$$
CHEMBL1297
     RDKit          3D

  0  0  0  0  0  0  0  0  0  0999 V3000
M  V30 BEGIN CTAB
M  V30 COUNTS 32 33 0 0 0
M  V30 BEGIN ATOM
M  V30 1 C -1.069453 -2.255942 2.644077 0
M  V30 2 C -0.060761 -2.947795 1.784502 0
M  V30 3 C 1.337135 -2.751445 2.246713 0
M  V30 4 O 2.065018 -3.702744 2.692708 0
M  V30 5 O 1.964938 -1.491400 2.225911 0
M  V30 6 C -0.206331 -2.552330 0.338524 0
M  V30 7 C -0.504348 -3.424952 -0.691553 0
M  V30 8 C -0.607061 -2.919558 -1.971586 0
M  V30 9 C -0.425919 -1.580607 -2.273257 0
M  V30 10 C -0.123931 -0.688163 -1.238856 0
M  V30 11 O 0.073137 0.679553 -1.464970 0
M  V30 12 C 0.372817 1.493830 -0.355600 0
M  V30 13 C 1.589240 1.834660 0.193812 0
M  V30 14 C 1.588597 2.655116 1.288003 0
M  V30 15 C 0.439222 3.149564 1.857829 0
M  V30 16 C -0.786018 2.813188 1.313673 0
M  V30 17 C -0.808996 1.983408 0.205205 0
M  V30 18 C -0.028244 -1.224013 0.028236 0
M  V30 19 H -1.790342 -1.672399 2.022680 0
M  V30 20 H -1.663277 -2.948618 3.275505 0
M  V30 21 H -0.590905 -1.539664 3.361100 0
M  V30 22 H -0.239809 -4.036325 1.813666 0
M  V30 23 H 2.979273 -1.499716 2.043234 0
M  V30 24 H -0.640652 -4.463366 -0.429144 0
M  V30 25 H -0.839908 -3.619989 -2.755020 0
M  V30 26 H -0.510005 -1.198512 -3.284837 0
M  V30 27 H 2.404011 1.392134 -0.332856 0
M  V30 28 H 2.575967 2.894223 1.683891 0
M  V30 29 H 0.498532 3.792766 2.720294 0
M  V30 30 H -1.675891 3.219097 1.785653 0
M  V30 31 H -1.823676 1.787132 -0.135680 0
M  V30 32 H 0.205526 -0.521431 0.815516 0
M  V30 END ATOM
M  V30 BEGIN BOND
M  V30 1 1 1 2
M  V30 2 1 2 3
M  V30 3 2 3 4
M  V30 4 1 3 5
M  V30 5 1 2 6
M  V30 6 2 6 7
M  V30 7 1 7 8
M  V30 8 2 8 9
M  V30 9 1 9 10
M  V30 10 1 10 11
M  V30 11 1 11 12
M  V30 12 2 12 13
M  V30 13 1 13 14
M  V30 14 2 14 15
M  V30 15 1 15 16
M  V30 16 2 16 17
M  V30 17 2 10 18
M  V30 18 1 18 6
M  V30 19 1 17 12
M  V30 20 1 1 19
M  V30 21 1 1 20
M  V30 22 1 1 21
M  V30 23 1 2 22
M  V30 24 1 5 23
M  V30 25 1 7 24
M  V30 26 1 8 25
M  V30 27 1 9 26
M  V30 28 1 13 27
M  V30 29 1 14 28
M  V30 30 1 15 29
M  V30 31 1 16 30
M  V30 32 1 17 31
M  V30 33 1 18 32
M  V30 END BOND
M  V30 END CTAB
M  END
>  <Dataset>  (382) 
OralDrugs

>  <Ligand_Instance>  (382) 
nan

>  <PDB_ID>  (382) 
nan

>  <Standardized_SMILES>  (382) 
CC(C(=O)O)c1cccc(Oc2ccccc2)c1

>  <Name>  (382) 
Fenoprofen

>  <Pocket>  (382) 
nan

>  <ATP_Site>  (382) 
nan

>  <Peripheral>  (382) 
nan

>  <Num_H_Atoms_ProtBoundConf>  (382) 
nan

>  <Num_Resolved_Atoms>  (382) 
nan

>  <Num_Not_Resolved_Atoms>  (382) 
nan

$$$$
CHEMBL596
     RDKit          3D

  0  0  0  0  0  0  0  0  0  0999 V3000
M  V30 BEGIN CTAB
M  V30 COUNTS 53 55 0 0 0
M  V30 BEGIN ATOM
M  V30 1 C 0.339444 -3.733207 -1.528652 0
M  V30 2 C 1.614328 -2.982411 -1.215681 0
M  V30 3 C 1.659738 -1.641415 -1.826888 0
M  V30 4 O 1.959032 -1.518706 -3.041921 0
M  V30 5 N 1.376374 -0.452694 -1.097255 0
M  V30 6 C 1.451641 0.795098 -1.777570 0
M  V30 7 C 0.259580 1.213588 -2.374025 0
M  V30 8 C 0.171170 2.415170 -3.077466 0
M  V30 9 C 1.299792 3.215746 -3.186673 0
M  V30 10 C 2.468214 2.797794 -2.597647 0
M  V30 11 C 2.567296 1.612920 -1.900348 0
M  V30 12 C 1.015527 -0.379821 0.278371 0
M  V30 13 C -0.356120 0.278344 0.495825 0
M  V30 14 C -0.582435 0.418036 1.985418 0
M  V30 15 N 0.387189 -0.335398 2.674549 0
M  V30 16 C 0.088900 -1.139993 3.752491 0
M  V30 17 C -0.700962 -2.394488 3.546887 0
M  V30 18 C -2.038530 -2.262365 2.991864 0
M  V30 19 C -3.089723 -2.017764 3.886196 0
M  V30 20 C -4.425404 -1.881964 3.570390 0
M  V30 21 C -4.771244 -1.995796 2.255210 0
M  V30 22 C -3.799416 -2.236178 1.308730 0
M  V30 23 C -2.478362 -2.364681 1.667498 0
M  V30 24 C 1.721235 0.172870 2.565008 0
M  V30 25 C 1.979015 0.449882 1.103142 0
M  V30 26 H -0.444815 -3.037569 -1.934953 0
M  V30 27 H 0.471583 -4.503999 -2.316669 0
M  V30 28 H -0.050987 -4.267933 -0.633328 0
M  V30 29 H 1.776667 -2.998096 -0.123696 0
M  V30 30 H 2.443738 -3.625104 -1.634007 0
M  V30 31 H -0.641126 0.636493 -2.322446 0
M  V30 32 H -0.773465 2.710286 -3.528982 0
M  V30 33 H 1.217933 4.140345 -3.731821 0
M  V30 34 H 3.363356 3.413323 -2.673859 0
M  V30 35 H 3.454250 1.237727 -1.418466 0
M  V30 36 H 0.961227 -1.364405 0.784374 0
M  V30 37 H -1.173793 -0.356315 0.100099 0
M  V30 38 H -0.350624 1.287131 0.029357 0
M  V30 39 H -1.609228 0.267866 2.294557 0
M  V30 40 H -0.371085 1.511018 2.243502 0
M  V30 41 H 1.072253 -1.491919 4.203830 0
M  V30 42 H -0.391239 -0.606359 4.610516 0
M  V30 43 H -0.808881 -2.872565 4.569044 0
M  V30 44 H -0.134407 -3.151225 2.945721 0
M  V30 45 H -2.854929 -1.919792 4.958621 0
M  V30 46 H -5.156717 -1.694929 4.335359 0
M  V30 47 H -5.791534 -1.904892 1.912422 0
M  V30 48 H -4.060365 -2.328549 0.261421 0
M  V30 49 H -1.649357 -2.558211 0.968884 0
M  V30 50 H 2.447376 -0.570183 2.949317 0
M  V30 51 H 1.776010 1.147171 3.100109 0
M  V30 52 H 3.030475 0.335185 0.809297 0
M  V30 53 H 1.717470 1.518952 0.851947 0
M  V30 END ATOM
M  V30 BEGIN BOND
M  V30 1 1 1 2
M  V30 2 1 2 3
M  V30 3 2 3 4
M  V30 4 1 3 5
M  V30 5 1 5 6
M  V30 6 2 6 7
M  V30 7 1 7 8
M  V30 8 2 8 9
M  V30 9 1 9 10
M  V30 10 2 10 11
M  V30 11 1 5 12
M  V30 12 1 12 13
M  V30 13 1 13 14
M  V30 14 1 14 15
M  V30 15 1 15 16
M  V30 16 1 16 17
M  V30 17 1 17 18
M  V30 18 2 18 19
M  V30 19 1 19 20
M  V30 20 2 20 21
M  V30 21 1 21 22
M  V30 22 2 22 23
M  V30 23 1 15 24
M  V30 24 1 24 25
M  V30 25 1 11 6
M  V30 26 1 25 12
M  V30 27 1 23 18
M  V30 28 1 1 26
M  V30 29 1 1 27
M  V30 30 1 1 28
M  V30 31 1 2 29
M  V30 32 1 2 30
M  V30 33 1 7 31
M  V30 34 1 8 32
M  V30 35 1 9 33
M  V30 36 1 10 34
M  V30 37 1 11 35
M  V30 38 1 12 36
M  V30 39 1 13 37
M  V30 40 1 13 38
M  V30 41 1 14 39
M  V30 42 1 14 40
M  V30 43 1 16 41
M  V30 44 1 16 42
M  V30 45 1 17 43
M  V30 46 1 17 44
M  V30 47 1 19 45
M  V30 48 1 20 46
M  V30 49 1 21 47
M  V30 50 1 22 48
M  V30 51 1 23 49
M  V30 52 1 24 50
M  V30 53 1 24 51
M  V30 54 1 25 52
M  V30 55 1 25 53
M  V30 END BOND
M  V30 END CTAB
M  END
>  <Dataset>  (383) 
OralDrugs

>  <Ligand_Instance>  (383) 
nan

>  <PDB_ID>  (383) 
nan

>  <Standardized_SMILES>  (383) 
CCC(=O)N(c1ccccc1)C1CCN(CCc2ccccc2)CC1

>  <Name>  (383) 
Fentanyl

>  <Pocket>  (383) 
nan

>  <ATP_Site>  (383) 
nan

>  <Peripheral>  (383) 
nan

>  <Num_H_Atoms_ProtBoundConf>  (383) 
nan

>  <Num_Resolved_Atoms>  (383) 
nan

>  <Num_Not_Resolved_Atoms>  (383) 
nan

$$$$
CHEMBL1631694
     RDKit          3D

  0  0  0  0  0  0  0  0  0  0999 V3000
M  V30 BEGIN CTAB
M  V30 COUNTS 32 33 0 0 0
M  V30 BEGIN ATOM
M  V30 1 C -0.986082 -3.848601 4.903314 0
M  V30 2 S -0.151285 -4.722048 3.566233 0
M  V30 3 C -0.022309 -3.751662 2.072233 0
M  V30 4 C 0.575296 -4.201440 0.910663 0
M  V30 5 C 0.627219 -3.360825 -0.214506 0
M  V30 6 C 0.081562 -2.058971 -0.191497 0
M  V30 7 O 0.317491 -1.569653 -1.427458 0
M  V30 8 C 0.026337 -0.353155 -2.006501 0
M  V30 9 C 0.618425 0.837137 -1.395552 0
M  V30 10 N 1.913237 1.084785 -1.756415 0
M  V30 11 C 2.342039 2.190757 -1.165668 0
M  V30 12 C 1.333989 2.700473 -0.397907 0
M  V30 13 N 1.270887 3.849133 0.424990 0 CHG=1 VAL=4
M  V30 14 O 2.230114 4.613232 0.561099 0
M  V30 15 O 0.224027 4.317652 1.180106 0 CHG=-1 VAL=1
M  V30 16 N 0.322698 1.853074 -0.570421 0
M  V30 17 C -0.991804 1.961137 0.013888 0
M  V30 18 C -0.491482 -1.699516 1.005311 0
M  V30 19 C -0.564559 -2.486572 2.128089 0
M  V30 20 H -1.799820 -3.177915 4.540976 0
M  V30 21 H -0.289120 -3.207696 5.477968 0
M  V30 22 H -1.464798 -4.577339 5.587072 0
M  V30 23 H 0.950573 -5.204771 1.020559 0
M  V30 24 H 1.142886 -3.937425 -0.997351 0
M  V30 25 H -1.102582 -0.182166 -1.973512 0
M  V30 26 H 0.218122 -0.405536 -3.108902 0
M  V30 27 H 3.329536 2.664523 -1.242946 0
M  V30 28 H -0.918060 1.687502 1.102925 0
M  V30 29 H -1.750497 1.309980 -0.462987 0
M  V30 30 H -1.364288 3.026047 -0.022040 0
M  V30 31 H -0.869820 -0.699481 0.892687 0
M  V30 32 H -1.060047 -1.994960 2.952924 0
M  V30 END ATOM
M  V30 BEGIN BOND
M  V30 1 1 1 2
M  V30 2 1 2 3
M  V30 3 2 3 4
M  V30 4 1 4 5
M  V30 5 2 5 6
M  V30 6 1 6 7
M  V30 7 1 7 8
M  V30 8 1 8 9
M  V30 9 2 9 10
M  V30 10 1 10 11
M  V30 11 2 11 12
M  V30 12 1 12 13
M  V30 13 2 13 14
M  V30 14 1 13 15
M  V30 15 1 12 16
M  V30 16 1 16 17
M  V30 17 1 6 18
M  V30 18 2 18 19
M  V30 19 1 19 3
M  V30 20 1 16 9
M  V30 21 1 1 20
M  V30 22 1 1 21
M  V30 23 1 1 22
M  V30 24 1 4 23
M  V30 25 1 5 24
M  V30 26 1 8 25
M  V30 27 1 8 26
M  V30 28 1 11 27
M  V30 29 1 17 28
M  V30 30 1 17 29
M  V30 31 1 17 30
M  V30 32 1 18 31
M  V30 33 1 19 32
M  V30 END BOND
M  V30 END CTAB
M  END
>  <Dataset>  (384) 
OralDrugs

>  <Ligand_Instance>  (384) 
nan

>  <PDB_ID>  (384) 
nan

>  <Standardized_SMILES>  (384) 
CSc1ccc(OCc2ncc([N+](=O)[O-])n2C)cc1

>  <Name>  (384) 
Fexinidazole

>  <Pocket>  (384) 
nan

>  <ATP_Site>  (384) 
nan

>  <Peripheral>  (384) 
nan

>  <Num_H_Atoms_ProtBoundConf>  (384) 
nan

>  <Num_Resolved_Atoms>  (384) 
nan

>  <Num_Not_Resolved_Atoms>  (384) 
nan

$$$$
CHEMBL1200618
     RDKit          3D

  0  0  0  0  0  0  0  0  0  0999 V3000
M  V30 BEGIN CTAB
M  V30 COUNTS 76 79 0 0 0
M  V30 BEGIN ATOM
M  V30 1 C 2.469474 1.739838 4.189958 0
M  V30 2 C 3.760826 1.033405 3.847420 0
M  V30 3 C 3.872402 -0.176409 4.766416 0
M  V30 4 C 4.921340 1.905372 4.157772 0
M  V30 5 O 4.718808 3.082128 4.565227 0
M  V30 6 O 6.243994 1.535765 4.037896 0
M  V30 7 C 3.812503 0.626702 2.429452 0
M  V30 8 C 4.106686 1.508433 1.424632 0
M  V30 9 C 4.152090 1.142545 0.093780 0
M  V30 10 C 3.894140 -0.162893 -0.273335 0
M  V30 11 C 3.880600 -0.801723 -1.589603 0
M  V30 12 O 4.458169 -2.062615 -1.638622 0
M  V30 13 C 2.505211 -0.881817 -2.205601 0
M  V30 14 C 1.881853 0.450801 -2.419845 0
M  V30 15 C 0.496670 0.351114 -3.036494 0
M  V30 16 N -0.450368 -0.347464 -2.286144 0
M  V30 17 C -0.870550 0.215796 -1.104601 0
M  V30 18 C -0.997109 -0.811930 -0.001468 0
M  V30 19 C -1.736218 -2.040137 -0.328193 0
M  V30 20 C -3.206765 -2.106258 -0.346319 0
M  V30 21 O -3.415913 -3.503508 -0.719826 0
M  V30 22 C -3.789305 -2.087129 1.011233 0
M  V30 23 C -4.419904 -3.186594 1.628586 0
M  V30 24 C -4.973914 -3.226154 2.861067 0
M  V30 25 C -4.946415 -2.110628 3.629595 0
M  V30 26 C -4.351445 -0.971159 3.124141 0
M  V30 27 C -3.809032 -1.003266 1.864007 0
M  V30 28 C -3.952765 -1.434920 -1.397080 0
M  V30 29 C -4.249387 -2.010800 -2.649628 0
M  V30 30 C -4.949577 -1.482433 -3.709836 0
M  V30 31 C -5.431722 -0.205195 -3.521994 0
M  V30 32 C -5.214893 0.477113 -2.344141 0
M  V30 33 C -4.497675 -0.164318 -1.358560 0
M  V30 34 C -1.053482 -2.633207 -1.536641 0
M  V30 35 C -0.733632 -1.631492 -2.618251 0
M  V30 36 C 3.589849 -1.090196 0.732078 0
M  V30 37 C 3.552021 -0.687127 2.072154 0
M  V30 38 H 1.623103 1.364647 3.570140 0
M  V30 39 H 2.198243 1.495366 5.238561 0
M  V30 40 H 2.582002 2.847232 4.150758 0
M  V30 41 H 4.636309 -0.880038 4.415379 0
M  V30 42 H 4.163448 0.210866 5.763673 0
M  V30 43 H 2.860080 -0.626701 4.846768 0
M  V30 44 H 6.931502 1.758092 4.741495 0
M  V30 45 H 4.320197 2.554331 1.644774 0
M  V30 46 H 4.372329 1.766345 -0.741735 0
M  V30 47 H 4.510513 -0.183830 -2.306133 0
M  V30 48 H 4.247094 -2.555285 -2.452684 0
M  V30 49 H 1.827770 -1.488702 -1.544679 0
M  V30 50 H 2.566846 -1.431934 -3.163170 0
M  V30 51 H 1.815505 1.081994 -1.538619 0
M  V30 52 H 2.488560 1.027654 -3.177865 0
M  V30 53 H 0.690253 -0.132656 -4.048227 0
M  V30 54 H 0.150817 1.387626 -3.353477 0
M  V30 55 H -0.057432 0.918561 -0.724666 0
M  V30 56 H -1.819843 0.806811 -1.210428 0
M  V30 57 H -1.150984 -0.356248 0.989026 0
M  V30 58 H 0.090443 -1.171977 0.101096 0
M  V30 59 H -1.441119 -2.757264 0.517859 0
M  V30 60 H -4.370589 -3.641054 -0.922659 0
M  V30 61 H -4.473817 -4.125805 1.052892 0
M  V30 62 H -5.435874 -4.122736 3.247304 0
M  V30 63 H -5.380598 -2.124840 4.607403 0
M  V30 64 H -4.350191 -0.107925 3.763261 0
M  V30 65 H -3.382136 -0.075799 1.578811 0
M  V30 66 H -3.862273 -3.035621 -2.801014 0
M  V30 67 H -5.089390 -2.057809 -4.603773 0
M  V30 68 H -5.989914 0.266849 -4.314635 0
M  V30 69 H -5.604387 1.474384 -2.228467 0
M  V30 70 H -4.369511 0.431748 -0.466867 0
M  V30 71 H -0.075313 -3.033167 -1.196583 0
M  V30 72 H -1.599222 -3.464805 -1.982080 0
M  V30 73 H -1.507908 -1.645502 -3.431481 0
M  V30 74 H 0.164163 -2.086291 -3.162335 0
M  V30 75 H 3.365047 -2.147063 0.602447 0
M  V30 76 H 3.322313 -1.368926 2.878155 0
M  V30 END ATOM
M  V30 BEGIN BOND
M  V30 1 1 1 2
M  V30 2 1 2 3
M  V30 3 1 2 4
M  V30 4 2 4 5
M  V30 5 1 4 6
M  V30 6 1 2 7
M  V30 7 2 7 8
M  V30 8 1 8 9
M  V30 9 2 9 10
M  V30 10 1 10 11
M  V30 11 1 11 12
M  V30 12 1 11 13
M  V30 13 1 13 14
M  V30 14 1 14 15
M  V30 15 1 15 16
M  V30 16 1 16 17
M  V30 17 1 17 18
M  V30 18 1 18 19
M  V30 19 1 19 20
M  V30 20 1 20 21
M  V30 21 1 20 22
M  V30 22 2 22 23
M  V30 23 1 23 24
M  V30 24 2 24 25
M  V30 25 1 25 26
M  V30 26 2 26 27
M  V30 27 1 20 28
M  V30 28 2 28 29
M  V30 29 1 29 30
M  V30 30 2 30 31
M  V30 31 1 31 32
M  V30 32 2 32 33
M  V30 33 1 19 34
M  V30 34 1 34 35
M  V30 35 1 10 36
M  V30 36 2 36 37
M  V30 37 1 37 7
M  V30 38 1 35 16
M  V30 39 1 27 22
M  V30 40 1 33 28
M  V30 41 1 1 38
M  V30 42 1 1 39
M  V30 43 1 1 40
M  V30 44 1 3 41
M  V30 45 1 3 42
M  V30 46 1 3 43
M  V30 47 1 6 44
M  V30 48 1 8 45
M  V30 49 1 9 46
M  V30 50 1 11 47
M  V30 51 1 12 48
M  V30 52 1 13 49
M  V30 53 1 13 50
M  V30 54 1 14 51
M  V30 55 1 14 52
M  V30 56 1 15 53
M  V30 57 1 15 54
M  V30 58 1 17 55
M  V30 59 1 17 56
M  V30 60 1 18 57
M  V30 61 1 18 58
M  V30 62 1 19 59
M  V30 63 1 21 60
M  V30 64 1 23 61
M  V30 65 1 24 62
M  V30 66 1 25 63
M  V30 67 1 26 64
M  V30 68 1 27 65
M  V30 69 1 29 66
M  V30 70 1 30 67
M  V30 71 1 31 68
M  V30 72 1 32 69
M  V30 73 1 33 70
M  V30 74 1 34 71
M  V30 75 1 34 72
M  V30 76 1 35 73
M  V30 77 1 35 74
M  V30 78 1 36 75
M  V30 79 1 37 76
M  V30 END BOND
M  V30 END CTAB
M  END
>  <Dataset>  (385) 
OralDrugs

>  <Ligand_Instance>  (385) 
nan

>  <PDB_ID>  (385) 
nan

>  <Standardized_SMILES>  (385) 
CC(C)(C(=O)O)c1ccc(C(O)CCCN2CCC(C(O)(c3ccccc3)c3ccccc3)CC2)cc1

>  <Name>  (385) 
Fexofenadine Hydrochloride

>  <Pocket>  (385) 
nan

>  <ATP_Site>  (385) 
nan

>  <Peripheral>  (385) 
nan

>  <Num_H_Atoms_ProtBoundConf>  (385) 
nan

>  <Num_Resolved_Atoms>  (385) 
nan

>  <Num_Not_Resolved_Atoms>  (385) 
nan

$$$$
CHEMBL3608680
     RDKit          3D

  0  0  0  0  0  0  0  0  0  0999 V3000
M  V30 BEGIN CTAB
M  V30 COUNTS 40 43 0 0 0
M  V30 BEGIN ATOM
M  V30 1 C 0.950980 -6.549579 -0.020938 0
M  V30 2 C 1.932534 -5.463698 0.293456 0
M  V30 3 N 3.292468 -5.564583 -0.328668 0
M  V30 4 S 3.943381 -4.003669 0.433805 0
M  V30 5 C 2.480223 -3.600098 1.297420 0
M  V30 6 C 2.367482 -2.388866 2.141064 0
M  V30 7 N 2.845077 -2.094950 3.377787 0
M  V30 8 N 2.458252 -0.866100 3.677802 0
M  V30 9 C 1.728857 -0.349811 2.645542 0
M  V30 10 N 1.691855 -1.322667 1.706625 0
M  V30 11 C 0.958320 -0.993567 0.500147 0
M  V30 12 C -0.290837 -0.253763 0.928232 0
M  V30 13 N 0.125756 1.001399 1.524167 0
M  V30 14 C -0.407093 2.248881 1.101605 0
M  V30 15 O -0.068425 3.377177 1.598880 0
M  V30 16 C -1.414025 2.315339 0.030557 0
M  V30 17 C -2.714144 1.994633 0.420052 0
M  V30 18 C -3.770296 2.009627 -0.463608 0
M  V30 19 C -3.479159 2.361095 -1.769520 0
M  V30 20 F -4.497923 2.386465 -2.668035 0
M  V30 21 C -2.193379 2.681299 -2.168155 0
M  V30 22 C -1.148701 2.663306 -1.279794 0
M  V30 23 C 1.111193 0.999447 2.580308 0 CFG=2
M  V30 24 C 2.150619 2.075864 2.391622 0
M  V30 25 N 1.566726 -4.454271 1.107880 0
M  V30 26 H 0.109078 -6.166166 -0.632198 0
M  V30 27 H 1.383487 -7.383233 -0.585211 0
M  V30 28 H 0.491562 -6.897562 0.928789 0
M  V30 29 H 0.720360 -1.919789 -0.057650 0
M  V30 30 H 1.541360 -0.276856 -0.130175 0
M  V30 31 H -0.987925 -0.090438 0.082067 0
M  V30 32 H -0.757487 -0.874815 1.745518 0
M  V30 33 H -2.950760 1.718439 1.442979 0
M  V30 34 H -4.790973 1.763183 -0.179117 0
M  V30 35 H -1.956694 2.956074 -3.182189 0
M  V30 36 H -0.124437 2.897243 -1.504206 0
M  V30 37 H 0.602639 1.169307 3.569557 0
M  V30 38 H 2.352870 2.282268 1.334909 0
M  V30 39 H 1.837327 2.999014 2.961857 0
M  V30 40 H 3.113332 1.765976 2.852665 0
M  V30 END ATOM
M  V30 BEGIN BOND
M  V30 1 1 1 2
M  V30 2 2 2 3
M  V30 3 1 3 4
M  V30 4 1 4 5
M  V30 5 1 5 6
M  V30 6 2 6 7
M  V30 7 1 7 8
M  V30 8 2 8 9
M  V30 9 1 9 10
M  V30 10 1 10 11
M  V30 11 1 11 12
M  V30 12 1 12 13
M  V30 13 1 13 14
M  V30 14 2 14 15
M  V30 15 1 14 16
M  V30 16 2 16 17
M  V30 17 1 17 18
M  V30 18 2 18 19
M  V30 19 1 19 20
M  V30 20 1 19 21
M  V30 21 2 21 22
M  V30 22 1 13 23
M  V30 23 1 23 24
M  V30 24 2 5 25
M  V30 25 1 25 2
M  V30 26 1 10 6
M  V30 27 1 22 16
M  V30 28 1 23 9
M  V30 29 1 1 26
M  V30 30 1 1 27
M  V30 31 1 1 28
M  V30 32 1 11 29
M  V30 33 1 11 30
M  V30 34 1 12 31
M  V30 35 1 12 32
M  V30 36 1 17 33
M  V30 37 1 18 34
M  V30 38 1 21 35
M  V30 39 1 22 36
M  V30 40 1 23 37 CFG=1
M  V30 41 1 24 38
M  V30 42 1 24 39
M  V30 43 1 24 40
M  V30 END BOND
M  V30 END CTAB
M  END
>  <Dataset>  (386) 
OralDrugs

>  <Ligand_Instance>  (386) 
nan

>  <PDB_ID>  (386) 
nan

>  <Standardized_SMILES>  (386) 
Cc1nsc(-c2nnc3n2CCN(C(=O)c2ccc(F)cc2)[C@@H]3C)n1

>  <Name>  (386) 
Fezolinetant

>  <Pocket>  (386) 
nan

>  <ATP_Site>  (386) 
nan

>  <Peripheral>  (386) 
nan

>  <Num_H_Atoms_ProtBoundConf>  (386) 
nan

>  <Num_Resolved_Atoms>  (386) 
nan

>  <Num_Not_Resolved_Atoms>  (386) 
nan

$$$$
CHEMBL1255800
     RDKit          3D

  0  0  0  0  0  0  0  0  0  0999 V3000
M  V30 BEGIN CTAB
M  V30 COUNTS 146 149 0 0 0
M  V30 BEGIN ATOM
M  V30 1 C 4.085771 -4.101356 3.284496 0
M  V30 2 C 3.991923 -3.098474 2.159222 0
M  V30 3 C 5.242817 -2.314753 2.022723 0
M  V30 4 C 6.260128 -3.024559 1.368541 0
M  V30 5 Cl 6.039341 -4.661976 0.764726 0
M  V30 6 C 7.481643 -2.426046 1.185805 0
M  V30 7 O 8.507807 -3.100566 0.540838 0
M  V30 8 C 7.623028 -1.150311 1.665965 0
M  V30 9 Cl 9.200710 -0.401538 1.418775 0
M  V30 10 C 6.683264 -0.396914 2.312472 0
M  V30 11 O 6.798856 0.870182 2.800666 0
M  V30 12 C 5.468037 -1.013873 2.485392 0
M  V30 13 C 4.263898 -0.481709 3.129220 0
M  V30 14 O 4.480130 -0.877524 4.316387 0
M  V30 15 O 3.118829 0.247368 2.771197 0
M  V30 16 C 2.161490 0.544723 3.764262 0 CFG=1
M  V30 17 C 1.878920 1.990652 3.961911 0 CFG=2
M  V30 18 O 2.157979 2.303052 5.301556 0
M  V30 19 C 0.475074 2.408082 3.602580 0 CFG=2
M  V30 20 O -0.355187 2.434518 4.703137 0
M  V30 21 C -0.663424 3.784079 4.978715 0
M  V30 22 C -0.056542 1.654245 2.416003 0 CFG=2
M  V30 23 O -1.429747 1.806729 2.212357 0
M  V30 24 C -1.613855 2.758150 1.246395 0
M  V30 25 C -2.978699 3.008060 0.744586 0
M  V30 26 C -4.269164 2.713243 0.761004 0
M  V30 27 C -5.144199 1.766039 1.429667 0
M  V30 28 C -4.798387 0.829263 2.245082 0
M  V30 29 C -5.606779 -0.205712 2.999422 0
M  V30 30 C -5.304597 -1.570137 2.468408 0 CFG=2
M  V30 31 O -5.915393 -2.521957 3.244035 0
M  V30 32 C -3.897967 -1.921638 2.222132 0
M  V30 33 C -3.180175 -1.945609 3.520813 0
M  V30 34 C -3.462617 -2.148987 0.969659 0
M  V30 35 C -2.330101 -2.500936 0.108868 0 CFG=2
M  V30 36 C -1.116257 -2.975806 0.918820 0
M  V30 37 C -1.464127 -4.195923 1.707385 0
M  V30 38 C -1.875996 -1.600250 -0.943615 0 CFG=1
M  V30 39 O -0.802753 -1.999438 -1.689385 0
M  V30 40 C 0.237941 -1.145212 -1.751869 0 CFG=2
M  V30 41 O 0.354228 -0.649282 -3.041249 0
M  V30 42 C 1.348698 -1.096843 -3.827202 0
M  V30 43 C 1.407386 -0.089583 -5.005462 0
M  V30 44 C 1.011310 -2.422232 -4.546853 0
M  V30 45 C 2.695090 -1.265135 -3.215090 0 CFG=1
M  V30 46 O 3.742792 -0.857305 -4.012734 0
M  V30 47 C 4.798816 -1.525089 -4.517849 0
M  V30 48 O 4.611094 -2.699212 -4.056086 0
M  V30 49 C 5.975089 -1.324919 -5.351038 0
M  V30 50 C 6.839554 -0.218989 -4.787413 0
M  V30 51 C 5.680218 -1.002252 -6.798307 0
M  V30 52 C 2.671962 -0.685829 -1.830582 0 CFG=2
M  V30 53 O 3.819444 -0.833334 -1.103945 0
M  V30 54 C 1.548893 -1.460319 -1.129582 0 CFG=2
M  V30 55 O 1.811141 -2.804113 -1.313534 0
M  V30 56 C -3.034000 -1.087179 -1.792770 0
M  V30 57 C -4.125092 -2.031741 -2.275544 0
M  V30 58 C -3.211449 0.067728 -2.274861 0
M  V30 59 C -3.510619 1.373655 -2.876907 0
M  V30 60 C -4.815324 0.979819 -3.469952 0
M  V30 61 C -2.946135 2.590306 -2.978862 0
M  V30 62 C -3.437355 3.847164 -3.651042 0
M  V30 63 C -3.346620 4.976154 -2.536099 0 CFG=1
M  V30 64 C -4.123178 6.125120 -2.994666 0 CFG=1
M  V30 65 C -3.478172 6.638773 -4.287944 0
M  V30 66 O -5.465441 5.855367 -3.315884 0
M  V30 67 O -3.665678 4.254959 -1.408889 0
M  V30 68 C -2.695334 3.873356 -0.450004 0
M  V30 69 O -1.609507 4.394156 -0.829586 0
M  V30 70 O 0.309532 0.376677 2.304919 0
M  V30 71 C 0.911431 -0.224373 3.382693 0 CFG=2
M  V30 72 C 0.038821 -0.492092 4.568841 0
M  V30 73 H 4.392139 -5.104962 2.929461 0
M  V30 74 H 4.855206 -3.803955 4.037337 0
M  V30 75 H 3.119651 -4.153864 3.874498 0
M  V30 76 H 3.166422 -2.424498 2.351135 0
M  V30 77 H 3.793346 -3.667069 1.222664 0
M  V30 78 H 8.371656 -3.809999 -0.163341 0
M  V30 79 H 7.658211 1.381453 2.830322 0
M  V30 80 H 2.540225 0.064384 4.716285 0
M  V30 81 H 2.638166 2.570972 3.372127 0
M  V30 82 H 3.011803 1.878237 5.571851 0
M  V30 83 H 0.585180 3.497078 3.322564 0
M  V30 84 H 0.264253 4.368974 5.211251 0
M  V30 85 H -1.374866 3.907905 5.809139 0
M  V30 86 H -1.099636 4.290517 4.098188 0
M  V30 87 H 0.377630 2.240073 1.540158 0
M  V30 88 H -0.925805 2.478091 0.411575 0
M  V30 89 H -1.172055 3.735526 1.614022 0
M  V30 90 H -4.971207 3.288387 0.129183 0
M  V30 91 H -6.217315 1.711966 1.342265 0
M  V30 92 H -3.810089 0.571708 2.573534 0
M  V30 93 H -5.540607 -0.071488 4.075367 0
M  V30 94 H -6.654940 0.039353 2.728416 0
M  V30 95 H -5.886471 -1.611479 1.476249 0
M  V30 96 H -5.283943 -3.292185 3.373913 0
M  V30 97 H -3.424060 -1.104795 4.198464 0
M  V30 98 H -3.430484 -2.849330 4.125110 0
M  V30 99 H -2.124766 -1.874145 3.269514 0
M  V30 100 H -4.266082 -2.017631 0.215434 0
M  V30 101 H -2.611704 -3.480692 -0.423079 0
M  V30 102 H -0.613763 -2.171552 1.453940 0
M  V30 103 H -0.404860 -3.325281 0.122710 0
M  V30 104 H -1.304652 -4.043849 2.781799 0
M  V30 105 H -2.568310 -4.371900 1.598210 0
M  V30 106 H -0.967820 -5.121935 1.332394 0
M  V30 107 H -1.472478 -0.658352 -0.400727 0
M  V30 108 H -0.079373 -0.220845 -1.157793 0
M  V30 109 H 2.417063 -0.055087 -5.455774 0
M  V30 110 H 0.702767 -0.404072 -5.797979 0
M  V30 111 H 1.039680 0.902284 -4.665504 0
M  V30 112 H 1.774239 -2.476629 -5.379255 0
M  V30 113 H 1.183849 -3.288838 -3.908986 0
M  V30 114 H 0.019573 -2.363963 -5.031716 0
M  V30 115 H 2.835619 -2.377312 -3.031612 0
M  V30 116 H 6.646196 -2.224523 -5.376709 0
M  V30 117 H 7.885145 -0.405967 -5.107115 0
M  V30 118 H 6.534444 0.757970 -5.218687 0
M  V30 119 H 6.843570 -0.203103 -3.673065 0
M  V30 120 H 4.671974 -1.353507 -7.114887 0
M  V30 121 H 5.731383 0.076712 -7.037132 0
M  V30 122 H 6.391333 -1.516458 -7.495371 0
M  V30 123 H 2.377144 0.377239 -1.870935 0
M  V30 124 H 4.318414 0.032429 -1.063386 0
M  V30 125 H 1.631013 -1.214203 -0.053331 0
M  V30 126 H 2.097598 -3.228121 -0.470242 0
M  V30 127 H -5.125654 -1.715230 -1.978658 0
M  V30 128 H -4.087652 -2.053598 -3.400310 0
M  V30 129 H -3.938900 -3.025966 -1.889984 0
M  V30 130 H -2.288047 0.555033 -1.892634 0
M  V30 131 H -5.598463 0.732094 -2.751118 0
M  V30 132 H -4.714085 0.200154 -4.277181 0
M  V30 133 H -5.251418 1.854061 -4.059205 0
M  V30 134 H -2.020645 2.361486 -2.434701 0
M  V30 135 H -2.856882 4.120820 -4.500040 0
M  V30 136 H -4.507345 3.709226 -3.836960 0
M  V30 137 H -2.260429 5.247270 -2.611370 0
M  V30 138 H -4.154797 6.957814 -2.240207 0
M  V30 139 H -3.933265 7.609030 -4.507235 0
M  V30 140 H -2.392032 6.715702 -4.061217 0
M  V30 141 H -3.668785 5.882175 -5.072283 0
M  V30 142 H -6.065160 6.607485 -3.072078 0
M  V30 143 H 1.268461 -1.213509 3.032350 0
M  V30 144 H -0.989515 -0.155184 4.354932 0
M  V30 145 H -0.072813 -1.595252 4.781508 0
M  V30 146 H 0.427299 -0.086183 5.530683 0
M  V30 END ATOM
M  V30 BEGIN BOND
M  V30 1 1 1 2
M  V30 2 1 2 3
M  V30 3 2 3 4
M  V30 4 1 4 5
M  V30 5 1 4 6
M  V30 6 1 6 7
M  V30 7 2 6 8
M  V30 8 1 8 9
M  V30 9 1 8 10
M  V30 10 1 10 11
M  V30 11 2 10 12
M  V30 12 1 12 13
M  V30 13 2 13 14
M  V30 14 1 13 15
M  V30 15 1 15 16
M  V30 16 1 16 17
M  V30 17 1 17 18
M  V30 18 1 17 19
M  V30 19 1 19 20
M  V30 20 1 20 21
M  V30 21 1 19 22
M  V30 22 1 22 23
M  V30 23 1 23 24
M  V30 24 1 24 25
M  V30 25 2 25 26
M  V30 26 1 26 27
M  V30 27 2 27 28
M  V30 28 1 28 29
M  V30 29 1 29 30
M  V30 30 1 30 31
M  V30 31 1 30 32
M  V30 32 1 32 33
M  V30 33 2 32 34
M  V30 34 1 34 35
M  V30 35 1 35 36
M  V30 36 1 36 37
M  V30 37 1 35 38
M  V30 38 1 38 39
M  V30 39 1 39 40
M  V30 40 1 40 41
M  V30 41 1 41 42
M  V30 42 1 42 43
M  V30 43 1 42 44
M  V30 44 1 42 45
M  V30 45 1 45 46
M  V30 46 1 46 47
M  V30 47 2 47 48
M  V30 48 1 47 49
M  V30 49 1 49 50
M  V30 50 1 49 51
M  V30 51 1 45 52
M  V30 52 1 52 53
M  V30 53 1 52 54
M  V30 54 1 54 55
M  V30 55 1 38 56
M  V30 56 1 56 57
M  V30 57 2 56 58
M  V30 58 1 58 59
M  V30 59 1 59 60
M  V30 60 2 59 61
M  V30 61 1 61 62
M  V30 62 1 62 63
M  V30 63 1 63 64
M  V30 64 1 64 65
M  V30 65 1 64 66
M  V30 66 1 63 67
M  V30 67 1 67 68
M  V30 68 2 68 69
M  V30 69 1 22 70
M  V30 70 1 70 71
M  V30 71 1 71 72
M  V30 72 1 12 3
M  V30 73 1 71 16
M  V30 74 1 68 25
M  V30 75 1 54 40
M  V30 76 1 1 73
M  V30 77 1 1 74
M  V30 78 1 1 75
M  V30 79 1 2 76
M  V30 80 1 2 77
M  V30 81 1 7 78
M  V30 82 1 11 79
M  V30 83 1 16 80 CFG=1
M  V30 84 1 17 81 CFG=3
M  V30 85 1 18 82
M  V30 86 1 19 83 CFG=3
M  V30 87 1 21 84
M  V30 88 1 21 85
M  V30 89 1 21 86
M  V30 90 1 22 87 CFG=3
M  V30 91 1 24 88
M  V30 92 1 24 89
M  V30 93 1 26 90
M  V30 94 1 27 91
M  V30 95 1 28 92
M  V30 96 1 29 93
M  V30 97 1 29 94
M  V30 98 1 30 95 CFG=3
M  V30 99 1 31 96
M  V30 100 1 33 97
M  V30 101 1 33 98
M  V30 102 1 33 99
M  V30 103 1 34 100
M  V30 104 1 35 101 CFG=3
M  V30 105 1 36 102
M  V30 106 1 36 103
M  V30 107 1 37 104
M  V30 108 1 37 105
M  V30 109 1 37 106
M  V30 110 1 38 107 CFG=1
M  V30 111 1 40 108 CFG=1
M  V30 112 1 43 109
M  V30 113 1 43 110
M  V30 114 1 43 111
M  V30 115 1 44 112
M  V30 116 1 44 113
M  V30 117 1 44 114
M  V30 118 1 45 115 CFG=1
M  V30 119 1 49 116
M  V30 120 1 50 117
M  V30 121 1 50 118
M  V30 122 1 50 119
M  V30 123 1 51 120
M  V30 124 1 51 121
M  V30 125 1 51 122
M  V30 126 1 52 123 CFG=3
M  V30 127 1 53 124
M  V30 128 1 54 125 CFG=1
M  V30 129 1 55 126
M  V30 130 1 57 127
M  V30 131 1 57 128
M  V30 132 1 57 129
M  V30 133 1 58 130
M  V30 134 1 60 131
M  V30 135 1 60 132
M  V30 136 1 60 133
M  V30 137 1 61 134
M  V30 138 1 62 135
M  V30 139 1 62 136
M  V30 140 1 63 137 CFG=1
M  V30 141 1 64 138 CFG=1
M  V30 142 1 65 139
M  V30 143 1 65 140
M  V30 144 1 65 141
M  V30 145 1 66 142
M  V30 146 1 71 143 CFG=3
M  V30 147 1 72 144
M  V30 148 1 72 145
M  V30 149 1 72 146
M  V30 END BOND
M  V30 END CTAB
M  END
>  <Dataset>  (387) 
OralDrugs

>  <Ligand_Instance>  (387) 
nan

>  <PDB_ID>  (387) 
nan

>  <Standardized_SMILES>  (387) 
CCc1c(Cl)c(O)c(Cl)c(O)c1C(=O)O[C@H]1[C@H](O)[C@H](OC)[C@H](OC/C2=C\C=C\C[C@H](O)/C(C)=C/[C@H](CC)[C@@H](O[C@@H]3OC(C)(C)[C@@H](OC(=O)C(C)C)[C@H](O)[C@@H]3O)/C(C)=C/C(C)=C/C[C@@H]([C@@H](C)O)OC2=O)O[C@@H]1C

>  <Name>  (387) 
Fidaxomicin

>  <Pocket>  (387) 
nan

>  <ATP_Site>  (387) 
nan

>  <Peripheral>  (387) 
nan

>  <Num_H_Atoms_ProtBoundConf>  (387) 
nan

>  <Num_Resolved_Atoms>  (387) 
nan

>  <Num_Not_Resolved_Atoms>  (387) 
nan

$$$$
CHEMBL710
     RDKit          3D

  0  0  0  0  0  0  0  0  0  0999 V3000
M  V30 BEGIN CTAB
M  V30 COUNTS 63 66 0 0 0
M  V30 BEGIN ATOM
M  V30 1 C 4.672076 1.599446 -1.278124 0
M  V30 2 C 4.450011 0.467981 -2.227572 0
M  V30 3 C 5.624138 -0.485695 -2.072317 0
M  V30 4 C 4.584280 1.035082 -3.644408 0
M  V30 5 N 3.189510 -0.194991 -2.108985 0
M  V30 6 C 2.809548 -0.826562 -0.893688 0
M  V30 7 O 3.611409 -0.795361 0.097971 0
M  V30 8 C 1.504795 -1.545432 -0.682312 0 CFG=1
M  V30 9 C 1.528205 -2.068928 0.760162 0
M  V30 10 C 0.279038 -1.497875 1.423169 0
M  V30 11 C -0.623385 -1.324116 0.255857 0 CFG=1
M  V30 12 C -1.769722 -0.370185 0.463906 0 CFG=2
M  V30 13 C -2.607517 -0.933553 1.569338 0
M  V30 14 C -3.865359 -0.108053 1.738482 0
M  V30 15 C -4.631730 -0.008230 0.435280 0 CFG=1
M  V30 16 N -5.738723 0.900636 0.599998 0
M  V30 17 C -6.582386 1.021002 -0.565116 0
M  V30 18 O -7.841074 1.229927 -0.518829 0
M  V30 19 C -5.897039 0.887633 -1.864593 0
M  V30 20 C -4.573527 0.672945 -1.872868 0
M  V30 21 C -3.724867 0.558405 -0.665345 0 CFG=1
M  V30 22 C -3.343947 1.967682 -0.285385 0
M  V30 23 C -2.557875 -0.350660 -0.815743 0 CFG=1
M  V30 24 C -1.724728 -0.021314 -2.024056 0
M  V30 25 C -0.429694 -0.752141 -2.071703 0
M  V30 26 C 0.315023 -0.659816 -0.760777 0 CFG=2
M  V30 27 C 0.604317 0.764295 -0.427710 0
M  V30 28 H 5.435120 2.305038 -1.719189 0
M  V30 29 H 5.166076 1.211576 -0.353366 0
M  V30 30 H 3.744933 2.142322 -1.084069 0
M  V30 31 H 6.489084 -0.006877 -2.575723 0
M  V30 32 H 5.433288 -1.420693 -2.654155 0
M  V30 33 H 5.901456 -0.666253 -1.035272 0
M  V30 34 H 4.080290 2.007747 -3.694002 0
M  V30 35 H 5.678688 1.140969 -3.898446 0
M  V30 36 H 4.177878 0.313911 -4.398370 0
M  V30 37 H 2.520106 -0.231966 -2.907658 0
M  V30 38 H 1.460766 -2.418051 -1.335711 0
M  V30 39 H 1.542456 -3.177709 0.800595 0
M  V30 40 H 2.411443 -1.687190 1.317791 0
M  V30 41 H 0.462541 -0.585584 1.998058 0
M  V30 42 H -0.170363 -2.240927 2.145312 0
M  V30 43 H -0.946600 -2.284882 -0.138232 0
M  V30 44 H -1.351352 0.579018 0.784551 0
M  V30 45 H -2.885452 -1.972296 1.263467 0
M  V30 46 H -2.087203 -0.933843 2.538265 0
M  V30 47 H -4.519155 -0.658166 2.448686 0
M  V30 48 H -3.637199 0.866926 2.165295 0
M  V30 49 H -5.022420 -0.993242 0.141066 0
M  V30 50 H -6.039742 1.488612 1.419380 0
M  V30 51 H -6.458501 0.962812 -2.789464 0
M  V30 52 H -4.143766 0.584434 -2.861015 0
M  V30 53 H -3.816208 2.254306 0.684859 0
M  V30 54 H -2.260390 2.131994 -0.163469 0
M  V30 55 H -3.679114 2.720275 -1.027901 0
M  V30 56 H -2.948795 -1.381698 -0.956591 0
M  V30 57 H -2.332432 -0.353530 -2.906642 0
M  V30 58 H -1.617322 1.082449 -2.186637 0
M  V30 59 H 0.131822 -0.427722 -2.945085 0
M  V30 60 H -0.676135 -1.842243 -2.200947 0
M  V30 61 H 1.627825 1.046213 -0.813263 0
M  V30 62 H -0.068969 1.494731 -0.903074 0
M  V30 63 H 0.638781 1.002963 0.653360 0
M  V30 END ATOM
M  V30 BEGIN BOND
M  V30 1 1 1 2
M  V30 2 1 2 3
M  V30 3 1 2 4
M  V30 4 1 2 5
M  V30 5 1 5 6
M  V30 6 2 6 7
M  V30 7 1 6 8
M  V30 8 1 8 9
M  V30 9 1 9 10
M  V30 10 1 10 11
M  V30 11 1 11 12
M  V30 12 1 12 13
M  V30 13 1 13 14
M  V30 14 1 14 15
M  V30 15 1 15 16
M  V30 16 1 16 17
M  V30 17 2 17 18
M  V30 18 1 17 19
M  V30 19 2 19 20
M  V30 20 1 20 21
M  V30 21 1 21 22 CFG=1
M  V30 22 1 21 23
M  V30 23 1 23 24
M  V30 24 1 24 25
M  V30 25 1 25 26
M  V30 26 1 26 27 CFG=1
M  V30 27 1 26 8
M  V30 28 1 26 11
M  V30 29 1 23 12
M  V30 30 1 21 15
M  V30 31 1 1 28
M  V30 32 1 1 29
M  V30 33 1 1 30
M  V30 34 1 3 31
M  V30 35 1 3 32
M  V30 36 1 3 33
M  V30 37 1 4 34
M  V30 38 1 4 35
M  V30 39 1 4 36
M  V30 40 1 5 37
M  V30 41 1 8 38 CFG=3
M  V30 42 1 9 39
M  V30 43 1 9 40
M  V30 44 1 10 41
M  V30 45 1 10 42
M  V30 46 1 11 43 CFG=3
M  V30 47 1 12 44 CFG=1
M  V30 48 1 13 45
M  V30 49 1 13 46
M  V30 50 1 14 47
M  V30 51 1 14 48
M  V30 52 1 15 49 CFG=3
M  V30 53 1 16 50
M  V30 54 1 19 51
M  V30 55 1 20 52
M  V30 56 1 22 53
M  V30 57 1 22 54
M  V30 58 1 22 55
M  V30 59 1 23 56 CFG=3
M  V30 60 1 24 57
M  V30 61 1 24 58
M  V30 62 1 25 59
M  V30 63 1 25 60
M  V30 64 1 27 61
M  V30 65 1 27 62
M  V30 66 1 27 63
M  V30 END BOND
M  V30 END CTAB
M  END
>  <Dataset>  (388) 
OralDrugs

>  <Ligand_Instance>  (388) 
nan

>  <PDB_ID>  (388) 
nan

>  <Standardized_SMILES>  (388) 
CC(C)(C)NC(=O)[C@H]1CC[C@H]2[C@@H]3CC[C@H]4NC(=O)C=C[C@]4(C)[C@H]3CC[C@]12C

>  <Name>  (388) 
Finasteride

>  <Pocket>  (388) 
nan

>  <ATP_Site>  (388) 
nan

>  <Peripheral>  (388) 
nan

>  <Num_H_Atoms_ProtBoundConf>  (388) 
nan

>  <Num_Resolved_Atoms>  (388) 
nan

>  <Num_Not_Resolved_Atoms>  (388) 
nan

$$$$
CHEMBL2181927
     RDKit          3D

  0  0  0  0  0  0  0  0  0  0999 V3000
M  V30 BEGIN CTAB
M  V30 COUNTS 50 52 0 0 0
M  V30 BEGIN ATOM
M  V30 1 C 1.952155 2.163378 3.509725 0
M  V30 2 C 2.326690 0.799828 3.031769 0
M  V30 3 O 1.545466 0.319220 1.953202 0
M  V30 4 C 1.869237 -0.949443 1.482359 0
M  V30 5 N 2.865333 -1.701094 2.004114 0
M  V30 6 C 3.193965 -2.928083 1.564046 0
M  V30 7 C 2.505004 -3.521741 0.506885 0
M  V30 8 C 2.813992 -4.873346 -0.030674 0
M  V30 9 C 1.492519 -2.746269 -0.016294 0
M  V30 10 C 1.142952 -1.485417 0.424051 0
M  V30 11 C 0.055255 -0.656139 -0.141390 0 CFG=2
M  V30 12 C -0.804605 -0.018429 0.835342 0
M  V30 13 C -1.542836 -0.867403 1.639445 0
M  V30 14 C -2.406075 -0.359164 2.614499 0
M  V30 15 C -2.475010 1.022225 2.723444 0
M  V30 16 C -3.362295 1.587025 3.726674 0
M  V30 17 N -4.070248 2.029160 4.530554 0
M  V30 18 C -1.764050 1.927775 1.951110 0
M  V30 19 C -0.921113 1.371331 0.997654 0
M  V30 20 O -0.177626 2.195602 0.187419 0
M  V30 21 C -0.176714 3.601483 0.219237 0
M  V30 22 C -0.575716 -1.390111 -1.223130 0
M  V30 23 C -1.631165 -0.610178 -1.776051 0
M  V30 24 N -2.599607 -0.750994 -2.815891 0
M  V30 25 O -2.119959 0.526231 -1.550043 0
M  V30 26 C -0.308155 -2.592289 -1.708303 0
M  V30 27 C -1.117495 -3.140250 -2.850875 0
M  V30 28 N 0.758489 -3.310062 -1.097444 0
M  V30 29 H 1.416796 2.042065 4.487978 0
M  V30 30 H 2.806887 2.851340 3.626914 0
M  V30 31 H 1.188768 2.562021 2.807188 0
M  V30 32 H 2.201296 0.023483 3.841673 0
M  V30 33 H 3.412246 0.710636 2.762496 0
M  V30 34 H 4.001610 -3.501434 2.009604 0
M  V30 35 H 3.678510 -5.240200 0.578281 0
M  V30 36 H 3.169759 -4.839585 -1.071571 0
M  V30 37 H 1.941152 -5.548791 0.111596 0
M  V30 38 H 0.613803 0.178089 -0.656428 0
M  V30 39 H -1.516428 -1.936661 1.585169 0
M  V30 40 H -3.013282 -0.971246 3.277918 0
M  V30 41 H -1.866384 2.981087 2.089717 0
M  V30 42 H 0.707794 3.965474 -0.353128 0
M  V30 43 H -1.072651 4.074905 -0.213605 0
M  V30 44 H -0.035148 3.995600 1.258774 0
M  V30 45 H -2.616070 -0.518300 -3.854328 0
M  V30 46 H -3.587632 -1.126704 -2.871518 0
M  V30 47 H -1.121215 -2.390762 -3.691534 0
M  V30 48 H -0.673948 -4.076451 -3.229904 0
M  V30 49 H -2.176648 -3.273121 -2.549388 0
M  V30 50 H 0.973919 -4.245728 -1.468073 0
M  V30 END ATOM
M  V30 BEGIN BOND
M  V30 1 1 1 2
M  V30 2 1 2 3
M  V30 3 1 3 4
M  V30 4 2 4 5
M  V30 5 1 5 6
M  V30 6 2 6 7
M  V30 7 1 7 8
M  V30 8 1 7 9
M  V30 9 2 9 10
M  V30 10 1 10 11
M  V30 11 1 11 12
M  V30 12 2 12 13
M  V30 13 1 13 14
M  V30 14 2 14 15
M  V30 15 1 15 16
M  V30 16 3 16 17
M  V30 17 1 15 18
M  V30 18 2 18 19
M  V30 19 1 19 20
M  V30 20 1 20 21
M  V30 21 1 11 22
M  V30 22 1 22 23
M  V30 23 1 23 24
M  V30 24 2 23 25
M  V30 25 2 22 26
M  V30 26 1 26 27
M  V30 27 1 26 28
M  V30 28 1 10 4
M  V30 29 1 19 12
M  V30 30 1 28 9
M  V30 31 1 1 29
M  V30 32 1 1 30
M  V30 33 1 1 31
M  V30 34 1 2 32
M  V30 35 1 2 33
M  V30 36 1 6 34
M  V30 37 1 8 35
M  V30 38 1 8 36
M  V30 39 1 8 37
M  V30 40 1 11 38 CFG=3
M  V30 41 1 13 39
M  V30 42 1 14 40
M  V30 43 1 18 41
M  V30 44 1 21 42
M  V30 45 1 21 43
M  V30 46 1 21 44
M  V30 47 1 24 45
M  V30 48 1 24 46
M  V30 49 1 27 47
M  V30 50 1 27 48
M  V30 51 1 27 49
M  V30 52 1 28 50
M  V30 END BOND
M  V30 END CTAB
M  END
>  <Dataset>  (389) 
OralDrugs

>  <Ligand_Instance>  (389) 
nan

>  <PDB_ID>  (389) 
nan

>  <Standardized_SMILES>  (389) 
CCOc1ncc(C)c2c1[C@H](c1ccc(C#N)cc1OC)C(C(N)=O)=C(C)N2

>  <Name>  (389) 
Finerenone

>  <Pocket>  (389) 
nan

>  <ATP_Site>  (389) 
nan

>  <Peripheral>  (389) 
nan

>  <Num_H_Atoms_ProtBoundConf>  (389) 
nan

>  <Num_Resolved_Atoms>  (389) 
nan

>  <Num_Not_Resolved_Atoms>  (389) 
nan

$$$$
CHEMBL1493
     RDKit          3D

  0  0  0  0  0  0  0  0  0  0999 V3000
M  V30 BEGIN CTAB
M  V30 COUNTS 54 57 0 0 0
M  V30 BEGIN ATOM
M  V30 1 C 2.946661 -5.227141 0.758985 0
M  V30 2 C 2.199229 -4.129783 0.132538 0
M  V30 3 C 2.293745 -2.854699 0.614097 0
M  V30 4 C 3.105217 -2.363619 1.695356 0
M  V30 5 C 2.790218 -1.090731 2.169877 0
M  V30 6 C 3.466375 -0.435554 3.169884 0
M  V30 7 C 4.540183 -1.034219 3.780694 0
M  V30 8 C 4.889925 -2.281699 3.351394 0
M  V30 9 C 4.180086 -2.873931 2.358005 0
M  V30 10 O 1.524675 -1.998516 -0.019505 0
M  V30 11 C 0.742418 -2.277964 -1.004120 0
M  V30 12 C -0.020344 -1.295227 -1.595194 0
M  V30 13 C -0.009557 0.102113 -1.175637 0
M  V30 14 O 0.627416 0.686833 -0.269378 0
M  V30 15 O -0.774600 1.069593 -1.778904 0
M  V30 16 C -0.859983 2.421456 -1.484059 0
M  V30 17 C -1.353286 2.779526 -0.117911 0
M  V30 18 N -2.670250 2.334273 0.169378 0
M  V30 19 C -2.890368 0.939061 0.289423 0
M  V30 20 C -4.364166 0.749329 0.688967 0
M  V30 21 C -4.422779 1.082920 2.167936 0
M  V30 22 C -3.410793 2.172773 2.487280 0
M  V30 23 C -3.296656 3.063762 1.251410 0
M  V30 24 C -0.854497 -1.600248 -2.648012 0
M  V30 25 C -0.946864 -2.885846 -3.133230 0
M  V30 26 C -0.210857 -3.915730 -2.586970 0
M  V30 27 C 0.600428 -3.536391 -1.538670 0
M  V30 28 C 1.381557 -4.486885 -0.916555 0
M  V30 29 O 1.321528 -5.679892 -1.336820 0
M  V30 30 H 4.004346 -5.303648 0.457100 0
M  V30 31 H 2.871470 -5.269420 1.869139 0
M  V30 32 H 2.496131 -6.220791 0.443330 0
M  V30 33 H 1.962209 -0.507408 1.775553 0
M  V30 34 H 3.190298 0.548856 3.509921 0
M  V30 35 H 5.071312 -0.526170 4.562479 0
M  V30 36 H 5.726260 -2.758378 3.820787 0
M  V30 37 H 4.524027 -3.819571 2.059762 0
M  V30 38 H -1.571530 2.870505 -2.219014 0
M  V30 39 H 0.105299 2.942076 -1.664769 0
M  V30 40 H -1.356276 3.891062 -0.056416 0
M  V30 41 H -0.596430 2.443446 0.633016 0
M  V30 42 H -2.262964 0.406218 1.017194 0
M  V30 43 H -2.810764 0.378871 -0.666092 0
M  V30 44 H -4.926390 1.539496 0.152872 0
M  V30 45 H -4.720996 -0.249016 0.451042 0
M  V30 46 H -5.418197 1.467158 2.453108 0
M  V30 47 H -4.185096 0.196224 2.751012 0
M  V30 48 H -2.447387 1.769692 2.822497 0
M  V30 49 H -3.831047 2.780539 3.309585 0
M  V30 50 H -2.791441 4.005369 1.516288 0
M  V30 51 H -4.335408 3.316797 0.955890 0
M  V30 52 H -1.469829 -0.833705 -3.132474 0
M  V30 53 H -1.612940 -3.085391 -3.961203 0
M  V30 54 H -0.248359 -4.939828 -2.932166 0
M  V30 END ATOM
M  V30 BEGIN BOND
M  V30 1 1 1 2
M  V30 2 2 2 3
M  V30 3 1 3 4
M  V30 4 2 4 5
M  V30 5 1 5 6
M  V30 6 2 6 7
M  V30 7 1 7 8
M  V30 8 2 8 9
M  V30 9 1 3 10
M  V30 10 1 10 11
M  V30 11 2 11 12
M  V30 12 1 12 13
M  V30 13 2 13 14
M  V30 14 1 13 15
M  V30 15 1 15 16
M  V30 16 1 16 17
M  V30 17 1 17 18
M  V30 18 1 18 19
M  V30 19 1 19 20
M  V30 20 1 20 21
M  V30 21 1 21 22
M  V30 22 1 22 23
M  V30 23 1 12 24
M  V30 24 2 24 25
M  V30 25 1 25 26
M  V30 26 2 26 27
M  V30 27 1 27 28
M  V30 28 2 28 29
M  V30 29 1 28 2
M  V30 30 1 9 4
M  V30 31 1 27 11
M  V30 32 1 23 18
M  V30 33 1 1 30
M  V30 34 1 1 31
M  V30 35 1 1 32
M  V30 36 1 5 33
M  V30 37 1 6 34
M  V30 38 1 7 35
M  V30 39 1 8 36
M  V30 40 1 9 37
M  V30 41 1 16 38
M  V30 42 1 16 39
M  V30 43 1 17 40
M  V30 44 1 17 41
M  V30 45 1 19 42
M  V30 46 1 19 43
M  V30 47 1 20 44
M  V30 48 1 20 45
M  V30 49 1 21 46
M  V30 50 1 21 47
M  V30 51 1 22 48
M  V30 52 1 22 49
M  V30 53 1 23 50
M  V30 54 1 23 51
M  V30 55 1 24 52
M  V30 56 1 25 53
M  V30 57 1 26 54
M  V30 END BOND
M  V30 END CTAB
M  END
>  <Dataset>  (390) 
OralDrugs

>  <Ligand_Instance>  (390) 
nan

>  <PDB_ID>  (390) 
nan

>  <Standardized_SMILES>  (390) 
Cc1c(-c2ccccc2)oc2c(C(=O)OCCN3CCCCC3)cccc2c1=O

>  <Name>  (390) 
Flavoxate

>  <Pocket>  (390) 
nan

>  <ATP_Site>  (390) 
nan

>  <Peripheral>  (390) 
nan

>  <Num_H_Atoms_ProtBoundConf>  (390) 
nan

>  <Num_Resolved_Atoms>  (390) 
nan

>  <Num_Not_Resolved_Atoms>  (390) 
nan

$$$$
CHEMBL652
     RDKit          3D

  0  0  0  0  0  0  0  0  0  0999 V3000
M  V30 BEGIN CTAB
M  V30 COUNTS 48 49 0 0 0
M  V30 BEGIN ATOM
M  V30 1 O 0.755993 -0.175262 2.245819 0
M  V30 2 C -0.076155 -0.888302 1.649772 0
M  V30 3 N 0.415761 -2.196940 1.531085 0
M  V30 4 C 1.638616 -2.831343 1.943821 0
M  V30 5 C 2.890309 -2.254366 1.323369 0
M  V30 6 C 2.816764 -2.370848 -0.158094 0
M  V30 7 C 3.805751 -1.557072 -0.919546 0
M  V30 8 C 4.551571 -0.553681 -0.095812 0
M  V30 9 C 3.772135 -0.022568 1.058992 0
M  V30 10 N 3.191991 -1.020543 1.904784 0
M  V30 11 C -1.336792 -0.344123 1.189045 0
M  V30 12 C -1.547676 0.989337 1.450866 0
M  V30 13 C -2.637830 1.728427 1.125284 0
M  V30 14 O -3.035366 2.983508 1.272553 0
M  V30 15 C -2.615406 4.168480 1.780613 0
M  V30 16 C -1.398465 4.817738 1.204151 0
M  V30 17 F -0.320197 4.023477 1.338145 0
M  V30 18 F -1.167528 5.982661 1.955042 0
M  V30 19 F -1.599900 5.265506 -0.090194 0
M  V30 20 C -3.653413 1.032999 0.445480 0
M  V30 21 C -3.520266 -0.330098 0.138354 0
M  V30 22 C -2.364340 -0.969238 0.522288 0
M  V30 23 O -2.199633 -2.301451 0.238480 0
M  V30 24 C -3.201887 -3.009803 -0.438757 0
M  V30 25 C -2.692061 -4.441156 -0.582997 0
M  V30 26 F -3.656602 -5.148001 -1.241689 0
M  V30 27 F -1.493282 -4.398147 -1.259548 0
M  V30 28 F -2.513386 -4.988650 0.668764 0
M  V30 29 H -0.230760 -2.881451 1.036595 0
M  V30 30 H 1.731094 -2.778705 3.077318 0
M  V30 31 H 1.651618 -3.914047 1.738996 0
M  V30 32 H 3.708523 -2.973121 1.670255 0
M  V30 33 H 2.990863 -3.441303 -0.416503 0
M  V30 34 H 1.775267 -2.165526 -0.482728 0
M  V30 35 H 4.534001 -2.182636 -1.471441 0
M  V30 36 H 3.251507 -0.971471 -1.696406 0
M  V30 37 H 4.840899 0.330648 -0.717085 0
M  V30 38 H 5.510218 -0.970677 0.286520 0
M  V30 39 H 3.021769 0.691065 0.644854 0
M  V30 40 H 4.451316 0.592915 1.685638 0
M  V30 41 H 3.725918 -1.105291 2.813849 0
M  V30 42 H -0.814754 1.563768 1.976853 0
M  V30 43 H -2.346947 3.988679 2.877287 0
M  V30 44 H -3.408749 4.963771 1.820402 0
M  V30 45 H -4.619600 1.398466 0.078553 0
M  V30 46 H -4.265794 -0.926570 -0.384116 0
M  V30 47 H -3.453655 -2.596547 -1.431738 0
M  V30 48 H -4.117417 -2.979721 0.187552 0
M  V30 END ATOM
M  V30 BEGIN BOND
M  V30 1 2 1 2
M  V30 2 1 2 3
M  V30 3 1 3 4
M  V30 4 1 4 5
M  V30 5 1 5 6
M  V30 6 1 6 7
M  V30 7 1 7 8
M  V30 8 1 8 9
M  V30 9 1 9 10
M  V30 10 1 2 11
M  V30 11 2 11 12
M  V30 12 1 12 13
M  V30 13 1 13 14
M  V30 14 1 14 15
M  V30 15 1 15 16
M  V30 16 1 16 17
M  V30 17 1 16 18
M  V30 18 1 16 19
M  V30 19 2 13 20
M  V30 20 1 20 21
M  V30 21 2 21 22
M  V30 22 1 22 23
M  V30 23 1 23 24
M  V30 24 1 24 25
M  V30 25 1 25 26
M  V30 26 1 25 27
M  V30 27 1 25 28
M  V30 28 1 10 5
M  V30 29 1 22 11
M  V30 30 1 3 29
M  V30 31 1 4 30
M  V30 32 1 4 31
M  V30 33 1 5 32
M  V30 34 1 6 33
M  V30 35 1 6 34
M  V30 36 1 7 35
M  V30 37 1 7 36
M  V30 38 1 8 37
M  V30 39 1 8 38
M  V30 40 1 9 39
M  V30 41 1 9 40
M  V30 42 1 10 41
M  V30 43 1 12 42
M  V30 44 1 15 43
M  V30 45 1 15 44
M  V30 46 1 20 45
M  V30 47 1 21 46
M  V30 48 1 24 47
M  V30 49 1 24 48
M  V30 END BOND
M  V30 END CTAB
M  END
>  <Dataset>  (391) 
OralDrugs

>  <Ligand_Instance>  (391) 
nan

>  <PDB_ID>  (391) 
nan

>  <Standardized_SMILES>  (391) 
O=C(NCC1CCCCN1)c1cc(OCC(F)(F)F)ccc1OCC(F)(F)F

>  <Name>  (391) 
Flecainide

>  <Pocket>  (391) 
nan

>  <ATP_Site>  (391) 
nan

>  <Peripheral>  (391) 
nan

>  <Num_H_Atoms_ProtBoundConf>  (391) 
nan

>  <Num_Resolved_Atoms>  (391) 
nan

>  <Num_Not_Resolved_Atoms>  (391) 
nan

$$$$
CHEMBL231068
     RDKit          3D

  0  0  0  0  0  0  0  0  0  0999 V3000
M  V30 BEGIN CTAB
M  V30 COUNTS 49 52 0 0 0
M  V30 BEGIN ATOM
M  V30 1 O 3.897072 -2.185861 2.454493 0
M  V30 2 C 3.458223 -2.179596 1.289721 0
M  V30 3 N 3.234878 -3.252966 0.516938 0
M  V30 4 C 2.761425 -2.875184 -0.684032 0
M  V30 5 C 2.368254 -3.518485 -1.839631 0
M  V30 6 C 1.917427 -2.791760 -2.922891 0
M  V30 7 C 1.844750 -1.412938 -2.888823 0
M  V30 8 C 2.246478 -0.805569 -1.716000 0
M  V30 9 C 2.708041 -1.502249 -0.599326 0
M  V30 10 N 3.133844 -1.037628 0.614096 0
M  V30 11 C 3.216959 0.345825 0.958456 0
M  V30 12 C 2.041920 1.034482 1.513599 0
M  V30 13 N 1.467154 0.552785 2.745514 0
M  V30 14 C 0.542002 1.556167 3.203290 0
M  V30 15 C -0.795192 1.614163 2.612852 0
M  V30 16 N -1.310471 0.300181 2.306008 0
M  V30 17 C -2.416828 0.163688 1.426868 0
M  V30 18 C -3.007551 1.334249 1.006817 0
M  V30 19 C -4.086544 1.311579 0.142730 0
M  V30 20 C -4.549488 0.070562 -0.283184 0
M  V30 21 C -3.972753 -1.123108 0.124872 0
M  V30 22 C -4.480151 -2.426364 -0.344498 0
M  V30 23 F -4.718355 -2.347651 -1.716698 0
M  V30 24 F -5.647983 -2.818914 0.232480 0
M  V30 25 F -3.456740 -3.366742 -0.214143 0
M  V30 26 C -2.889401 -1.050525 0.994889 0
M  V30 27 C -0.587697 -0.778164 2.977943 0
M  V30 28 C 0.867432 -0.730613 2.570575 0
M  V30 29 H 3.381858 -4.275583 0.741715 0
M  V30 30 H 2.430368 -4.615662 -1.855387 0
M  V30 31 H 1.607245 -3.308564 -3.836809 0
M  V30 32 H 1.497730 -0.807977 -3.715635 0
M  V30 33 H 2.187577 0.283457 -1.692101 0
M  V30 34 H 4.139853 0.472795 1.603760 0
M  V30 35 H 3.523423 0.907557 0.019881 0
M  V30 36 H 2.187587 2.152645 1.573873 0
M  V30 37 H 1.202502 0.894250 0.752431 0
M  V30 38 H 1.048368 2.546100 3.006299 0
M  V30 39 H 0.472069 1.473383 4.306437 0
M  V30 40 H -0.757385 2.243948 1.678068 0
M  V30 41 H -1.518674 2.134447 3.280366 0
M  V30 42 H -2.739644 2.358015 1.268946 0
M  V30 43 H -4.601734 2.181293 -0.231163 0
M  V30 44 H -5.387916 -0.026519 -0.958838 0
M  V30 45 H -2.443601 -1.966426 1.310202 0
M  V30 46 H -1.044861 -1.753121 2.760036 0
M  V30 47 H -0.657993 -0.590227 4.064103 0
M  V30 48 H 1.393949 -1.473524 3.171878 0
M  V30 49 H 0.885473 -1.017104 1.514622 0
M  V30 END ATOM
M  V30 BEGIN BOND
M  V30 1 2 1 2
M  V30 2 1 2 3
M  V30 3 1 3 4
M  V30 4 2 4 5
M  V30 5 1 5 6
M  V30 6 2 6 7
M  V30 7 1 7 8
M  V30 8 2 8 9
M  V30 9 1 9 10
M  V30 10 1 10 11
M  V30 11 1 11 12
M  V30 12 1 12 13
M  V30 13 1 13 14
M  V30 14 1 14 15
M  V30 15 1 15 16
M  V30 16 1 16 17
M  V30 17 2 17 18
M  V30 18 1 18 19
M  V30 19 2 19 20
M  V30 20 1 20 21
M  V30 21 1 21 22
M  V30 22 1 22 23
M  V30 23 1 22 24
M  V30 24 1 22 25
M  V30 25 2 21 26
M  V30 26 1 16 27
M  V30 27 1 27 28
M  V30 28 1 10 2
M  V30 29 1 28 13
M  V30 30 1 9 4
M  V30 31 1 26 17
M  V30 32 1 3 29
M  V30 33 1 5 30
M  V30 34 1 6 31
M  V30 35 1 7 32
M  V30 36 1 8 33
M  V30 37 1 11 34
M  V30 38 1 11 35
M  V30 39 1 12 36
M  V30 40 1 12 37
M  V30 41 1 14 38
M  V30 42 1 14 39
M  V30 43 1 15 40
M  V30 44 1 15 41
M  V30 45 1 18 42
M  V30 46 1 19 43
M  V30 47 1 20 44
M  V30 48 1 26 45
M  V30 49 1 27 46
M  V30 50 1 27 47
M  V30 51 1 28 48
M  V30 52 1 28 49
M  V30 END BOND
M  V30 END CTAB
M  END
>  <Dataset>  (392) 
OralDrugs

>  <Ligand_Instance>  (392) 
nan

>  <PDB_ID>  (392) 
nan

>  <Standardized_SMILES>  (392) 
O=c1[nH]c2ccccc2n1CCN1CCN(c2cccc(C(F)(F)F)c2)CC1

>  <Name>  (392) 
Flibanserin

>  <Pocket>  (392) 
nan

>  <ATP_Site>  (392) 
nan

>  <Peripheral>  (392) 
nan

>  <Num_H_Atoms_ProtBoundConf>  (392) 
nan

>  <Num_Resolved_Atoms>  (392) 
nan

>  <Num_Not_Resolved_Atoms>  (392) 
nan

$$$$
CHEMBL106
     RDKit          3D

  0  0  0  0  0  0  0  0  0  0999 V3000
M  V30 BEGIN CTAB
M  V30 COUNTS 34 36 0 0 0
M  V30 BEGIN ATOM
M  V30 1 O -0.166231 -1.549453 -0.397240 0
M  V30 2 C 0.003566 -0.803708 0.802751 0
M  V30 3 C 0.267132 -1.842797 1.861471 0
M  V30 4 N 1.455537 -2.584907 1.500230 0
M  V30 5 C 1.373455 -3.699017 0.714463 0
M  V30 6 N 2.574709 -4.257317 0.502182 0
M  V30 7 C 3.439579 -3.475406 1.171566 0
M  V30 8 N 2.763853 -2.481760 1.762968 0
M  V30 9 C 1.258991 -0.005537 0.606030 0
M  V30 10 N 1.247011 0.871036 -0.551971 0
M  V30 11 C 1.691573 0.191211 -1.666084 0
M  V30 12 N 1.679161 1.044827 -2.737267 0
M  V30 13 C 1.222091 2.224459 -2.225929 0
M  V30 14 N 0.970853 2.104893 -0.930860 0
M  V30 15 C -1.171073 0.000358 1.035513 0
M  V30 16 C -1.436257 1.332557 1.236488 0
M  V30 17 C -2.652563 1.918979 1.484868 0
M  V30 18 C -3.755565 1.094471 1.546025 0
M  V30 19 F -4.932473 1.702637 1.791376 0
M  V30 20 C -3.584025 -0.281898 1.354385 0
M  V30 21 C -2.313095 -0.819366 1.103272 0
M  V30 22 F -2.500644 -2.174196 0.957390 0
M  V30 23 H -1.064263 -1.364659 -0.776465 0
M  V30 24 H 0.448980 -1.271672 2.821381 0
M  V30 25 H -0.550546 -2.575376 1.995727 0
M  V30 26 H 0.468361 -4.137316 0.277840 0
M  V30 27 H 4.492912 -3.413229 1.368611 0
M  V30 28 H 2.194172 -0.540392 0.651900 0
M  V30 29 H 1.285893 0.697384 1.508029 0
M  V30 30 H 2.045215 -0.811044 -1.942910 0
M  V30 31 H 1.019052 3.224870 -2.627795 0
M  V30 32 H -0.563093 1.935423 1.209553 0
M  V30 33 H -2.676145 2.982019 1.616915 0
M  V30 34 H -4.537728 -0.779559 1.433830 0
M  V30 END ATOM
M  V30 BEGIN BOND
M  V30 1 1 1 2
M  V30 2 1 2 3
M  V30 3 1 3 4
M  V30 4 1 4 5
M  V30 5 2 5 6
M  V30 6 1 6 7
M  V30 7 2 7 8
M  V30 8 1 2 9
M  V30 9 1 9 10
M  V30 10 1 10 11
M  V30 11 2 11 12
M  V30 12 1 12 13
M  V30 13 2 13 14
M  V30 14 1 2 15
M  V30 15 2 15 16
M  V30 16 1 16 17
M  V30 17 2 17 18
M  V30 18 1 18 19
M  V30 19 1 18 20
M  V30 20 2 20 21
M  V30 21 1 21 22
M  V30 22 1 8 4
M  V30 23 1 14 10
M  V30 24 1 21 15
M  V30 25 1 1 23
M  V30 26 1 3 24
M  V30 27 1 3 25
M  V30 28 1 5 26
M  V30 29 1 7 27
M  V30 30 1 9 28
M  V30 31 1 9 29
M  V30 32 1 11 30
M  V30 33 1 13 31
M  V30 34 1 16 32
M  V30 35 1 17 33
M  V30 36 1 20 34
M  V30 END BOND
M  V30 END CTAB
M  END
>  <Dataset>  (393) 
OralDrugs

>  <Ligand_Instance>  (393) 
nan

>  <PDB_ID>  (393) 
nan

>  <Standardized_SMILES>  (393) 
OC(Cn1cncn1)(Cn1cncn1)c1ccc(F)cc1F

>  <Name>  (393) 
Fluconazole

>  <Pocket>  (393) 
nan

>  <ATP_Site>  (393) 
nan

>  <Peripheral>  (393) 
nan

>  <Num_H_Atoms_ProtBoundConf>  (393) 
nan

>  <Num_Resolved_Atoms>  (393) 
nan

>  <Num_Not_Resolved_Atoms>  (393) 
nan

$$$$
CHEMBL1463
     RDKit          3D

  0  0  0  0  0  0  0  0  0  0999 V3000
M  V30 BEGIN CTAB
M  V30 COUNTS 13 13 0 0 0
M  V30 BEGIN ATOM
M  V30 1 N 0.653760 -2.352006 -0.588648 0
M  V30 2 C 0.990372 -1.208198 0.186448 0
M  V30 3 N 1.574902 -1.447931 1.374880 0
M  V30 4 C 1.916757 -0.412827 2.153100 0
M  V30 5 O 2.467303 -0.513804 3.281274 0
M  V30 6 N 1.652519 0.826251 1.695890 0
M  V30 7 C 1.070455 1.105980 0.515374 0
M  V30 8 C 0.708597 0.055889 -0.305157 0
M  V30 9 F 0.118384 0.234430 -1.509661 0
M  V30 10 H 0.815212 -2.237514 -1.629316 0
M  V30 11 H 0.282309 -3.281149 -0.360373 0
M  V30 12 H 1.909457 1.671740 2.285606 0
M  V30 13 H 0.882640 2.132842 0.200731 0
M  V30 END ATOM
M  V30 BEGIN BOND
M  V30 1 1 1 2
M  V30 2 2 2 3
M  V30 3 1 3 4
M  V30 4 2 4 5
M  V30 5 1 4 6
M  V30 6 1 6 7
M  V30 7 2 7 8
M  V30 8 1 8 9
M  V30 9 1 8 2
M  V30 10 1 1 10
M  V30 11 1 1 11
M  V30 12 1 6 12
M  V30 13 1 7 13
M  V30 END BOND
M  V30 END CTAB
M  END
>  <Dataset>  (394) 
OralDrugs

>  <Ligand_Instance>  (394) 
nan

>  <PDB_ID>  (394) 
nan

>  <Standardized_SMILES>  (394) 
Nc1nc(=O)[nH]cc1F

>  <Name>  (394) 
Flucytosine

>  <Pocket>  (394) 
nan

>  <ATP_Site>  (394) 
nan

>  <Peripheral>  (394) 
nan

>  <Num_H_Atoms_ProtBoundConf>  (394) 
nan

>  <Num_Resolved_Atoms>  (394) 
nan

>  <Num_Not_Resolved_Atoms>  (394) 
nan

$$$$
CHEMBL1096882
     RDKit          3D

  0  0  0  0  0  0  0  0  0  0999 V3000
M  V30 BEGIN CTAB
M  V30 COUNTS 37 39 0 0 0
M  V30 BEGIN ATOM
M  V30 1 N 0.259867 -2.830680 6.560990 0
M  V30 2 C 0.770223 -2.150382 5.421815 0
M  V30 3 N 2.065052 -1.782605 5.338580 0
M  V30 4 C 2.569642 -1.129719 4.253049 0
M  V30 5 F 3.894843 -0.785151 4.233619 0
M  V30 6 N 1.714889 -0.849701 3.227556 0
M  V30 7 C 0.422730 -1.197042 3.269956 0
M  V30 8 C -0.076723 -1.857613 4.374050 0
M  V30 9 N -1.376866 -2.061537 4.115866 0
M  V30 10 C -1.682253 -1.552533 2.904289 0
M  V30 11 N -0.561658 -1.011838 2.372628 0
M  V30 12 C -0.579191 -0.399798 1.098571 0 CFG=2
M  V30 13 O -0.315851 -1.193030 0.010087 0
M  V30 14 C -0.454443 -0.265135 -1.033017 0 CFG=2
M  V30 15 C 0.232308 -0.690098 -2.300471 0
M  V30 16 O 0.008195 0.324004 -3.237113 0
M  V30 17 P 0.760065 -0.090925 -4.702483 0
M  V30 18 O 2.256795 0.130747 -4.546753 0
M  V30 19 O 0.524716 -1.739130 -4.988258 0
M  V30 20 O 0.208229 0.858275 -5.967717 0
M  V30 21 C 0.075800 1.063268 -0.527608 0 CFG=1
M  V30 22 O -0.936291 2.027279 -0.451976 0
M  V30 23 C 0.505334 0.658457 0.890291 0 CFG=2
M  V30 24 O 1.764431 0.070270 0.713542 0
M  V30 25 H 0.064725 -2.641582 7.557210 0
M  V30 26 H -0.018941 -3.838023 6.389978 0
M  V30 27 H -2.701596 -1.615787 2.502138 0
M  V30 28 H -1.539073 0.130051 0.869293 0
M  V30 29 H -1.523068 -0.156959 -1.231353 0
M  V30 30 H 1.315799 -0.842945 -2.182498 0
M  V30 31 H -0.203469 -1.624173 -2.653769 0
M  V30 32 H -0.439884 -1.947249 -4.847521 0
M  V30 33 H -0.685286 0.588026 -6.292697 0
M  V30 34 H 0.924910 1.401737 -1.135089 0
M  V30 35 H -0.476700 2.903361 -0.381247 0
M  V30 36 H 0.474447 1.471259 1.605811 0
M  V30 37 H 2.355940 0.670477 0.213223 0
M  V30 END ATOM
M  V30 BEGIN BOND
M  V30 1 1 1 2
M  V30 2 2 2 3
M  V30 3 1 3 4
M  V30 4 1 4 5
M  V30 5 2 4 6
M  V30 6 1 6 7
M  V30 7 2 7 8
M  V30 8 1 8 9
M  V30 9 2 9 10
M  V30 10 1 10 11
M  V30 11 1 11 12
M  V30 12 1 12 13
M  V30 13 1 13 14
M  V30 14 1 14 15
M  V30 15 1 15 16
M  V30 16 1 16 17
M  V30 17 2 17 18
M  V30 18 1 17 19
M  V30 19 1 17 20
M  V30 20 1 14 21
M  V30 21 1 21 22
M  V30 22 1 21 23
M  V30 23 1 23 24
M  V30 24 1 8 2
M  V30 25 1 23 12
M  V30 26 1 11 7
M  V30 27 1 1 25
M  V30 28 1 1 26
M  V30 29 1 10 27
M  V30 30 1 12 28 CFG=3
M  V30 31 1 14 29 CFG=3
M  V30 32 1 15 30
M  V30 33 1 15 31
M  V30 34 1 19 32
M  V30 35 1 20 33
M  V30 36 1 21 34 CFG=3
M  V30 37 1 22 35
M  V30 38 1 23 36 CFG=1
M  V30 39 1 24 37
M  V30 END BOND
M  V30 END CTAB
M  END
>  <Dataset>  (395) 
OralDrugs

>  <Ligand_Instance>  (395) 
nan

>  <PDB_ID>  (395) 
nan

>  <Standardized_SMILES>  (395) 
Nc1nc(F)nc2c1ncn2[C@@H]1O[C@H](COP(=O)(O)O)[C@@H](O)[C@@H]1O

>  <Name>  (395) 
Fludarabine Phosphate

>  <Pocket>  (395) 
nan

>  <ATP_Site>  (395) 
nan

>  <Peripheral>  (395) 
nan

>  <Num_H_Atoms_ProtBoundConf>  (395) 
nan

>  <Num_Resolved_Atoms>  (395) 
nan

>  <Num_Not_Resolved_Atoms>  (395) 
nan

$$$$
CHEMBL41
     RDKit          3D

  0  0  0  0  0  0  0  0  0  0999 V3000
M  V30 BEGIN CTAB
M  V30 COUNTS 40 41 0 0 0
M  V30 BEGIN ATOM
M  V30 1 C 1.413294 -4.835742 1.666890 0
M  V30 2 N 1.271324 -4.169989 0.400587 0
M  V30 3 C 1.249343 -2.725509 0.529207 0
M  V30 4 C -0.016380 -2.331019 1.223876 0
M  V30 5 C -0.139373 -0.811902 1.408905 0
M  V30 6 O -0.113429 -0.279480 0.106140 0
M  V30 7 C 0.742801 0.666933 -0.376594 0
M  V30 8 C 0.530097 0.995710 -1.709312 0
M  V30 9 C 1.357844 1.954133 -2.291597 0
M  V30 10 C 2.366161 2.573446 -1.588000 0
M  V30 11 C 3.271438 3.597434 -2.168721 0
M  V30 12 F 2.695134 4.834516 -1.946153 0
M  V30 13 F 3.458009 3.399349 -3.519424 0
M  V30 14 F 4.470212 3.573370 -1.476835 0
M  V30 15 C 2.555994 2.224807 -0.255995 0
M  V30 16 C 1.746107 1.273998 0.347703 0
M  V30 17 C -1.492614 -0.614704 2.042436 0
M  V30 18 C -2.651454 -0.885456 1.323250 0
M  V30 19 C -3.877273 -0.693412 1.932637 0
M  V30 20 C -3.984685 -0.239956 3.236202 0
M  V30 21 C -2.835323 0.033609 3.963437 0
M  V30 22 C -1.617108 -0.163180 3.340765 0
M  V30 23 H 1.568369 -5.916083 1.455007 0
M  V30 24 H 2.306861 -4.489931 2.233424 0
M  V30 25 H 0.560917 -4.749849 2.339108 0
M  V30 26 H 2.091214 -4.424385 -0.189134 0
M  V30 27 H 1.169830 -2.317502 -0.512493 0
M  V30 28 H 2.153672 -2.318340 1.027707 0
M  V30 29 H -0.142526 -2.774876 2.214428 0
M  V30 30 H -0.853558 -2.588982 0.513898 0
M  V30 31 H 0.617089 -0.407093 2.088248 0
M  V30 32 H -0.240804 0.551402 -2.323334 0
M  V30 33 H 1.265125 2.271277 -3.321513 0
M  V30 34 H 3.358693 2.716434 0.306597 0
M  V30 35 H 1.890885 1.005942 1.373266 0
M  V30 36 H -2.588728 -1.245949 0.287321 0
M  V30 37 H -4.805874 -0.891538 1.410628 0
M  V30 38 H -4.928677 -0.079160 3.739483 0
M  V30 39 H -2.906489 0.391555 4.991502 0
M  V30 40 H -0.712639 0.041677 3.882280 0
M  V30 END ATOM
M  V30 BEGIN BOND
M  V30 1 1 1 2
M  V30 2 1 2 3
M  V30 3 1 3 4
M  V30 4 1 4 5
M  V30 5 1 5 6
M  V30 6 1 6 7
M  V30 7 2 7 8
M  V30 8 1 8 9
M  V30 9 2 9 10
M  V30 10 1 10 11
M  V30 11 1 11 12
M  V30 12 1 11 13
M  V30 13 1 11 14
M  V30 14 1 10 15
M  V30 15 2 15 16
M  V30 16 1 5 17
M  V30 17 2 17 18
M  V30 18 1 18 19
M  V30 19 2 19 20
M  V30 20 1 20 21
M  V30 21 2 21 22
M  V30 22 1 16 7
M  V30 23 1 22 17
M  V30 24 1 1 23
M  V30 25 1 1 24
M  V30 26 1 1 25
M  V30 27 1 2 26
M  V30 28 1 3 27
M  V30 29 1 3 28
M  V30 30 1 4 29
M  V30 31 1 4 30
M  V30 32 1 5 31
M  V30 33 1 8 32
M  V30 34 1 9 33
M  V30 35 1 15 34
M  V30 36 1 16 35
M  V30 37 1 18 36
M  V30 38 1 19 37
M  V30 39 1 20 38
M  V30 40 1 21 39
M  V30 41 1 22 40
M  V30 END BOND
M  V30 END CTAB
M  END
>  <Dataset>  (396) 
OralDrugs

>  <Ligand_Instance>  (396) 
nan

>  <PDB_ID>  (396) 
nan

>  <Standardized_SMILES>  (396) 
CNCCC(Oc1ccc(C(F)(F)F)cc1)c1ccccc1

>  <Name>  (396) 
Fluoxetine

>  <Pocket>  (396) 
nan

>  <ATP_Site>  (396) 
nan

>  <Peripheral>  (396) 
nan

>  <Num_H_Atoms_ProtBoundConf>  (396) 
nan

>  <Num_Resolved_Atoms>  (396) 
nan

>  <Num_Not_Resolved_Atoms>  (396) 
nan

$$$$
CHEMBL1445
     RDKit          3D

  0  0  0  0  0  0  0  0  0  0999 V3000
M  V30 BEGIN CTAB
M  V30 COUNTS 53 56 0 0 0
M  V30 BEGIN ATOM
M  V30 1 C -2.910144 -3.765974 0.632065 0
M  V30 2 C -1.495185 -3.820055 1.139083 0 CFG=2
M  V30 3 O -1.015028 -5.105182 0.817306 0
M  V30 4 C -1.383545 -3.711675 2.641105 0
M  V30 5 C -0.407333 -2.557375 2.908414 0
M  V30 6 C -0.597743 -1.759989 1.691138 0 CFG=1
M  V30 7 C 0.415199 -0.757698 1.308794 0 CFG=2
M  V30 8 C 1.018778 0.045838 2.417088 0
M  V30 9 C 2.168022 0.785874 1.715230 0
M  V30 10 C 1.495092 1.766741 0.833639 0
M  V30 11 C 1.878909 3.029322 0.929543 0
M  V30 12 C 1.279508 4.073577 0.106192 0
M  V30 13 O 1.841079 5.145502 -0.152438 0
M  V30 14 C -0.073204 3.798704 -0.429894 0
M  V30 15 C -0.602166 2.458008 -0.085668 0
M  V30 16 C 0.449790 1.342674 -0.100768 0 CFG=1
M  V30 17 C 1.043831 1.393787 -1.507494 0
M  V30 18 C -0.234378 0.079794 0.226111 0 CFG=2
M  V30 19 F -1.552350 0.288045 0.660433 0
M  V30 20 C -0.403490 -0.842454 -0.975667 0 CFG=1
M  V30 21 O 0.784350 -1.106754 -1.627165 0
M  V30 22 C -1.095715 -2.107191 -0.645957 0
M  V30 23 C -0.574878 -2.806811 0.577062 0 CFG=2
M  V30 24 C 0.773518 -3.419891 0.407164 0
M  V30 25 H -3.505905 -2.927406 0.990209 0
M  V30 26 H -2.844309 -3.870470 -0.467184 0
M  V30 27 H -3.393522 -4.724432 0.973388 0
M  V30 28 H -1.579629 -5.585758 0.189922 0
M  V30 29 H -2.370934 -3.491653 3.096380 0
M  V30 30 H -1.013876 -4.625337 3.133752 0
M  V30 31 H 0.594346 -2.886137 3.167201 0
M  V30 32 H -0.790812 -2.003886 3.814055 0
M  V30 33 H -1.622969 -1.337904 1.702995 0
M  V30 34 H 1.280707 -1.267881 0.792556 0
M  V30 35 H 0.305869 0.782223 2.837553 0
M  V30 36 H 1.379408 -0.647015 3.174694 0
M  V30 37 H 2.715268 0.064948 1.100997 0
M  V30 38 H 2.793263 1.231556 2.482102 0
M  V30 39 H 2.668218 3.317558 1.642285 0
M  V30 40 H -0.169605 4.038228 -1.502574 0
M  V30 41 H -0.742055 4.547408 0.088305 0
M  V30 42 H -1.450201 2.216853 -0.758153 0
M  V30 43 H -0.993205 2.470765 0.945440 0
M  V30 44 H 1.275327 2.453995 -1.752000 0
M  V30 45 H 0.324759 1.086808 -2.290927 0
M  V30 46 H 2.022716 0.874869 -1.569120 0
M  V30 47 H -1.068946 -0.325757 -1.730199 0
M  V30 48 H 0.622123 -1.319445 -2.576008 0
M  V30 49 H -1.009221 -2.771160 -1.531922 0
M  V30 50 H -2.171538 -1.894830 -0.454952 0
M  V30 51 H 1.435281 -3.293286 1.287323 0
M  V30 52 H 1.360791 -3.043993 -0.453019 0
M  V30 53 H 0.731799 -4.529660 0.249188 0
M  V30 END ATOM
M  V30 BEGIN BOND
M  V30 1 1 1 2
M  V30 2 1 2 3 CFG=3
M  V30 3 1 2 4
M  V30 4 1 4 5
M  V30 5 1 5 6
M  V30 6 1 6 7
M  V30 7 1 7 8
M  V30 8 1 8 9
M  V30 9 1 9 10
M  V30 10 2 10 11
M  V30 11 1 11 12
M  V30 12 2 12 13
M  V30 13 1 12 14
M  V30 14 1 14 15
M  V30 15 1 15 16
M  V30 16 1 16 17 CFG=3
M  V30 17 1 16 18
M  V30 18 1 18 19 CFG=1
M  V30 19 1 18 20
M  V30 20 1 20 21
M  V30 21 1 20 22
M  V30 22 1 22 23
M  V30 23 1 23 24 CFG=3
M  V30 24 1 23 2
M  V30 25 1 23 6
M  V30 26 1 18 7
M  V30 27 1 16 10
M  V30 28 1 1 25
M  V30 29 1 1 26
M  V30 30 1 1 27
M  V30 31 1 3 28
M  V30 32 1 4 29
M  V30 33 1 4 30
M  V30 34 1 5 31
M  V30 35 1 5 32
M  V30 36 1 6 33 CFG=1
M  V30 37 1 7 34 CFG=3
M  V30 38 1 8 35
M  V30 39 1 8 36
M  V30 40 1 9 37
M  V30 41 1 9 38
M  V30 42 1 11 39
M  V30 43 1 14 40
M  V30 44 1 14 41
M  V30 45 1 15 42
M  V30 46 1 15 43
M  V30 47 1 17 44
M  V30 48 1 17 45
M  V30 49 1 17 46
M  V30 50 1 20 47 CFG=3
M  V30 51 1 21 48
M  V30 52 1 22 49
M  V30 53 1 22 50
M  V30 54 1 24 51
M  V30 55 1 24 52
M  V30 56 1 24 53
M  V30 END BOND
M  V30 END CTAB
M  END
>  <Dataset>  (397) 
OralDrugs

>  <Ligand_Instance>  (397) 
nan

>  <PDB_ID>  (397) 
nan

>  <Standardized_SMILES>  (397) 
C[C@]1(O)CC[C@H]2[C@@H]3CCC4=CC(=O)CC[C@]4(C)[C@@]3(F)[C@@H](O)C[C@@]21C

>  <Name>  (397) 
Fluoxymesterone

>  <Pocket>  (397) 
nan

>  <ATP_Site>  (397) 
nan

>  <Peripheral>  (397) 
nan

>  <Num_H_Atoms_ProtBoundConf>  (397) 
nan

>  <Num_Resolved_Atoms>  (397) 
nan

>  <Num_Not_Resolved_Atoms>  (397) 
nan

$$$$
CHEMBL1448187
     RDKit          3D

  0  0  0  0  0  0  0  0  0  0999 V3000
M  V30 BEGIN CTAB
M  V30 COUNTS 56 59 0 0 0
M  V30 BEGIN ATOM
M  V30 1 O -1.288109 -2.547794 4.059144 0
M  V30 2 C -0.293979 -3.250652 3.340828 0
M  V30 3 C 0.884694 -2.329498 3.253950 0
M  V30 4 N 1.994122 -2.913284 2.538452 0
M  V30 5 C 3.066463 -1.905601 2.532433 0
M  V30 6 C 2.690473 -0.640027 1.945703 0
M  V30 7 N 1.716489 -0.544775 0.884933 0
M  V30 8 C 2.325218 0.019500 -0.299589 0
M  V30 9 C 1.634557 1.034301 -1.087201 0
M  V30 10 C 0.335810 0.892429 -1.762469 0
M  V30 11 N -0.835257 0.734183 -1.014348 0
M  V30 12 C -1.273602 1.851504 -0.250912 0
M  V30 13 C -0.676331 3.092363 -0.368061 0
M  V30 14 C -1.038474 4.267993 0.226244 0
M  V30 15 C -2.158074 4.249598 1.069017 0
M  V30 16 C -2.810930 3.042966 1.234959 0
M  V30 17 C -2.353540 1.947025 0.591333 0
M  V30 18 S -3.333693 0.493302 0.920848 0
M  V30 19 C -2.710364 -0.728338 -0.214848 0
M  V30 20 C -3.460606 -1.875247 -0.220626 0
M  V30 21 C -3.056644 -2.903205 -1.049860 0
M  V30 22 C -1.937087 -2.745742 -1.825961 0
M  V30 23 C -1.535348 -3.873081 -2.692509 0
M  V30 24 F -0.619674 -3.556043 -3.644236 0
M  V30 25 F -0.905866 -4.789891 -1.830581 0
M  V30 26 F -2.644154 -4.553055 -3.165798 0
M  V30 27 C -1.264213 -1.552720 -1.738387 0
M  V30 28 C -1.594217 -0.459986 -0.934309 0
M  V30 29 C 1.106823 -1.820516 0.579599 0
M  V30 30 C 1.706429 -3.049740 1.124196 0
M  V30 31 H -1.986453 -2.216528 3.435319 0
M  V30 32 H -0.003675 -4.172423 3.873925 0
M  V30 33 H -0.711993 -3.525691 2.361110 0
M  V30 34 H 0.583373 -1.363326 2.818513 0
M  V30 35 H 1.234990 -2.162575 4.299749 0
M  V30 36 H 3.908780 -2.439526 1.997659 0
M  V30 37 H 3.380244 -1.771244 3.587044 0
M  V30 38 H 2.331431 0.070822 2.739851 0
M  V30 39 H 3.627966 -0.134042 1.562683 0
M  V30 40 H 3.345908 0.424746 -0.015690 0
M  V30 41 H 2.586054 -0.852657 -0.996198 0
M  V30 42 H 1.594043 1.933427 -0.328025 0
M  V30 43 H 2.411738 1.450033 -1.854095 0
M  V30 44 H 0.514582 0.129016 -2.558331 0
M  V30 45 H 0.157270 1.834915 -2.417123 0
M  V30 46 H 0.164246 3.303182 -1.019742 0
M  V30 47 H -0.572415 5.232096 0.137545 0
M  V30 48 H -2.500107 5.143371 1.569259 0
M  V30 49 H -3.672229 3.073208 1.887838 0
M  V30 50 H -4.333830 -2.049618 0.360546 0
M  V30 51 H -3.614981 -3.832372 -1.094159 0
M  V30 52 H -0.399343 -1.537137 -2.386652 0
M  V30 53 H 1.138603 -1.951972 -0.546504 0
M  V30 54 H 0.052957 -1.785100 0.873546 0
M  V30 55 H 2.690272 -3.302246 0.638867 0
M  V30 56 H 1.025162 -3.890192 0.993967 0
M  V30 END ATOM
M  V30 BEGIN BOND
M  V30 1 1 1 2
M  V30 2 1 2 3
M  V30 3 1 3 4
M  V30 4 1 4 5
M  V30 5 1 5 6
M  V30 6 1 6 7
M  V30 7 1 7 8
M  V30 8 1 8 9
M  V30 9 1 9 10
M  V30 10 1 10 11
M  V30 11 1 11 12
M  V30 12 2 12 13
M  V30 13 1 13 14
M  V30 14 2 14 15
M  V30 15 1 15 16
M  V30 16 2 16 17
M  V30 17 1 17 18
M  V30 18 1 18 19
M  V30 19 2 19 20
M  V30 20 1 20 21
M  V30 21 2 21 22
M  V30 22 1 22 23
M  V30 23 1 23 24
M  V30 24 1 23 25
M  V30 25 1 23 26
M  V30 26 1 22 27
M  V30 27 2 27 28
M  V30 28 1 7 29
M  V30 29 1 29 30
M  V30 30 1 30 4
M  V30 31 1 28 11
M  V30 32 1 17 12
M  V30 33 1 28 19
M  V30 34 1 1 31
M  V30 35 1 2 32
M  V30 36 1 2 33
M  V30 37 1 3 34
M  V30 38 1 3 35
M  V30 39 1 5 36
M  V30 40 1 5 37
M  V30 41 1 6 38
M  V30 42 1 6 39
M  V30 43 1 8 40
M  V30 44 1 8 41
M  V30 45 1 9 42
M  V30 46 1 9 43
M  V30 47 1 10 44
M  V30 48 1 10 45
M  V30 49 1 13 46
M  V30 50 1 14 47
M  V30 51 1 15 48
M  V30 52 1 16 49
M  V30 53 1 20 50
M  V30 54 1 21 51
M  V30 55 1 27 52
M  V30 56 1 29 53
M  V30 57 1 29 54
M  V30 58 1 30 55
M  V30 59 1 30 56
M  V30 END BOND
M  V30 END CTAB
M  END
>  <Dataset>  (398) 
OralDrugs

>  <Ligand_Instance>  (398) 
nan

>  <PDB_ID>  (398) 
nan

>  <Standardized_SMILES>  (398) 
OCCN1CCN(CCCN2c3ccccc3Sc3ccc(C(F)(F)F)cc32)CC1

>  <Name>  (398) 
Fluphenazine Hydrochloride

>  <Pocket>  (398) 
nan

>  <ATP_Site>  (398) 
nan

>  <Peripheral>  (398) 
nan

>  <Num_H_Atoms_ProtBoundConf>  (398) 
nan

>  <Num_Resolved_Atoms>  (398) 
nan

>  <Num_Not_Resolved_Atoms>  (398) 
nan

$$$$
CHEMBL1200774
     RDKit          3D

  0  0  0  0  0  0  0  0  0  0999 V3000
M  V30 BEGIN CTAB
M  V30 COUNTS 54 57 0 0 0
M  V30 BEGIN ATOM
M  V30 1 C 2.650569 1.003967 0.546463 0
M  V30 2 C 2.144194 0.167793 1.689634 0 CFG=2
M  V30 3 C 2.236062 1.007905 2.911368 0
M  V30 4 C 2.995231 0.842148 3.983527 0
M  V30 5 C 3.866810 -0.328860 3.969795 0
M  V30 6 O 4.595708 -0.526643 4.949900 0
M  V30 7 C 3.899384 -1.252296 2.853151 0
M  V30 8 C 3.084759 -0.958361 1.850099 0
M  V30 9 C 2.982227 -1.801164 0.614132 0 CFG=1
M  V30 10 F 3.918849 -2.788955 0.666132 0
M  V30 11 C 1.591052 -2.439735 0.660095 0
M  V30 12 C 0.639844 -1.321444 0.382444 0 CFG=2
M  V30 13 C 0.738877 -0.301517 1.527900 0 CFG=2
M  V30 14 C -0.263704 0.779442 1.421258 0 CFG=1
M  V30 15 O 0.120572 1.907189 0.717810 0
M  V30 16 C -1.593503 0.384087 0.904785 0
M  V30 17 C -1.590466 -0.670116 -0.161734 0 CFG=1
M  V30 18 C -1.016726 -0.183359 -1.465558 0
M  V30 19 C -0.753950 -1.810182 0.440101 0 CFG=1
M  V30 20 C -1.121921 -2.989541 -0.371155 0
M  V30 21 C -2.651656 -2.859403 -0.313851 0
M  V30 22 C -2.898669 -1.350966 -0.340891 0 CFG=1
M  V30 23 O -3.711895 -0.997360 0.758970 0
M  V30 24 C -3.553585 -0.942915 -1.610484 0
M  V30 25 O -4.235592 -0.650910 -0.617049 0
M  V30 26 C -4.296963 -0.493418 -2.813487 0
M  V30 27 O -3.611841 -0.777858 -3.989650 0
M  V30 28 H 3.759958 0.951204 0.555090 0
M  V30 29 H 2.336565 0.672907 -0.448596 0
M  V30 30 H 2.448828 2.102364 0.716858 0
M  V30 31 H 1.543580 1.828036 2.782606 0
M  V30 32 H 2.931865 1.559228 4.786596 0
M  V30 33 H 4.521373 -2.124114 2.797520 0
M  V30 34 H 3.059301 -1.229783 -0.314540 0
M  V30 35 H 1.472167 -3.211247 -0.130381 0
M  V30 36 H 1.409763 -2.833424 1.675588 0
M  V30 37 H 0.908908 -0.779375 -0.538079 0
M  V30 38 H 0.509275 -0.898292 2.444826 0
M  V30 39 H -0.429600 1.150522 2.476816 0
M  V30 40 H -0.455578 2.669375 1.006168 0
M  V30 41 H -2.139464 1.257331 0.474178 0
M  V30 42 H -2.252930 0.006308 1.717020 0
M  V30 43 H -0.310992 0.658245 -1.338786 0
M  V30 44 H -0.501821 -0.984644 -2.041287 0
M  V30 45 H -1.834374 0.193346 -2.115927 0
M  V30 46 H -1.079609 -1.951668 1.477313 0
M  V30 47 H -0.900369 -3.934941 0.194231 0
M  V30 48 H -0.748054 -3.006161 -1.391664 0
M  V30 49 H -3.026570 -3.258214 0.656811 0
M  V30 50 H -3.152920 -3.396138 -1.127198 0
M  V30 51 H -3.578006 -1.707047 1.433316 0
M  V30 52 H -5.329503 -0.925267 -2.842839 0
M  V30 53 H -4.418948 0.604414 -2.760166 0
M  V30 54 H -3.015553 -1.583948 -3.900479 0
M  V30 END ATOM
M  V30 BEGIN BOND
M  V30 1 1 2 1 CFG=3
M  V30 2 1 2 3
M  V30 3 2 3 4
M  V30 4 1 4 5
M  V30 5 2 5 6
M  V30 6 1 5 7
M  V30 7 2 7 8
M  V30 8 1 8 9
M  V30 9 1 9 10
M  V30 10 1 9 11
M  V30 11 1 11 12
M  V30 12 1 12 13
M  V30 13 1 13 14
M  V30 14 1 14 15
M  V30 15 1 14 16
M  V30 16 1 16 17
M  V30 17 1 17 18 CFG=3
M  V30 18 1 17 19
M  V30 19 1 19 20
M  V30 20 1 20 21
M  V30 21 1 21 22
M  V30 22 1 22 23 CFG=1
M  V30 23 1 22 24
M  V30 24 2 24 25
M  V30 25 1 24 26
M  V30 26 1 26 27
M  V30 27 1 8 2
M  V30 28 1 19 12
M  V30 29 1 13 2
M  V30 30 1 22 17
M  V30 31 1 1 28
M  V30 32 1 1 29
M  V30 33 1 1 30
M  V30 34 1 3 31
M  V30 35 1 4 32
M  V30 36 1 7 33
M  V30 37 1 9 34 CFG=3
M  V30 38 1 11 35
M  V30 39 1 11 36
M  V30 40 1 12 37 CFG=3
M  V30 41 1 13 38 CFG=1
M  V30 42 1 14 39 CFG=1
M  V30 43 1 15 40
M  V30 44 1 16 41
M  V30 45 1 16 42
M  V30 46 1 18 43
M  V30 47 1 18 44
M  V30 48 1 18 45
M  V30 49 1 19 46 CFG=1
M  V30 50 1 20 47
M  V30 51 1 20 48
M  V30 52 1 21 49
M  V30 53 1 21 50
M  V30 54 1 23 51
M  V30 55 1 26 52
M  V30 56 1 26 53
M  V30 57 1 27 54
M  V30 END BOND
M  V30 END CTAB
M  END
>  <Dataset>  (399) 
OralDrugs

>  <Ligand_Instance>  (399) 
nan

>  <PDB_ID>  (399) 
nan

>  <Standardized_SMILES>  (399) 
C[C@]12C=CC(=O)C=C1[C@@H](F)C[C@@H]1[C@@H]2[C@@H](O)C[C@@]2(C)[C@H]1CC[C@]2(O)C(=O)CO

>  <Name>  (399) 
Fluprednisolone

>  <Pocket>  (399) 
nan

>  <ATP_Site>  (399) 
nan

>  <Peripheral>  (399) 
nan

>  <Num_H_Atoms_ProtBoundConf>  (399) 
nan

>  <Num_Resolved_Atoms>  (399) 
nan

>  <Num_Not_Resolved_Atoms>  (399) 
nan

$$$$
CHEMBL968
     RDKit          3D

  0  0  0  0  0  0  0  0  0  0999 V3000
M  V30 BEGIN CTAB
M  V30 COUNTS 50 52 0 0 0
M  V30 BEGIN ATOM
M  V30 1 C 2.057068 -3.003685 3.760185 0
M  V30 2 C 1.701164 -2.579415 2.362994 0
M  V30 3 N 2.093554 -1.316859 1.931677 0
M  V30 4 C 1.536648 -0.147379 2.467436 0
M  V30 5 C 1.863567 0.171338 3.894018 0
M  V30 6 C 3.115256 -1.147087 0.983827 0
M  V30 7 C 2.804444 -1.597296 -0.431910 0
M  V30 8 N 1.710396 -0.925385 -1.027545 0
M  V30 9 C 1.909036 0.299101 -1.789428 0
M  V30 10 O 3.149340 0.536620 -1.989004 0
M  V30 11 C 1.036649 1.333611 -2.388566 0
M  V30 12 N -0.229919 1.494348 -1.704041 0
M  V30 13 C -1.031007 0.679658 -1.103749 0
M  V30 14 C -2.274490 1.184100 -0.494969 0
M  V30 15 C -2.546224 0.892885 0.846655 0
M  V30 16 C -3.682530 1.326540 1.503179 0
M  V30 17 C -4.608655 2.094279 0.795613 0
M  V30 18 C -4.321220 2.369150 -0.524490 0
M  V30 19 C -3.190081 1.940273 -1.186531 0
M  V30 20 F -2.929126 2.222170 -2.479794 0
M  V30 21 C -0.866534 -0.760646 -0.928753 0
M  V30 22 C -2.054172 -1.454311 -0.781826 0
M  V30 23 C -1.988396 -2.822203 -0.601783 0
M  V30 24 Cl -3.525588 -3.649615 -0.420865 0
M  V30 25 C -0.769365 -3.506487 -0.565757 0
M  V30 26 C 0.378000 -2.759290 -0.718256 0
M  V30 27 C 0.365029 -1.419772 -0.897147 0
M  V30 28 H 3.151236 -2.988093 3.963101 0
M  V30 29 H 1.465538 -2.554454 4.555287 0
M  V30 30 H 1.793119 -4.103481 3.803571 0
M  V30 31 H 0.571237 -2.618781 2.333275 0
M  V30 32 H 2.014475 -3.402953 1.674258 0
M  V30 33 H 1.939674 0.717654 1.860165 0
M  V30 34 H 0.439251 -0.068501 2.320566 0
M  V30 35 H 2.649545 -0.486912 4.317662 0
M  V30 36 H 2.283328 1.211927 4.031010 0
M  V30 37 H 0.989258 0.118878 4.575045 0
M  V30 38 H 3.393262 -0.048394 0.987571 0
M  V30 39 H 4.079448 -1.601629 1.349098 0
M  V30 40 H 3.700638 -1.099840 -0.985481 0
M  V30 41 H 3.041504 -2.619674 -0.671723 0
M  V30 42 H 1.562156 2.310150 -2.341105 0
M  V30 43 H 0.839061 1.070922 -3.461711 0
M  V30 44 H -1.877358 0.302643 1.464268 0
M  V30 45 H -3.873689 1.091248 2.538881 0
M  V30 46 H -5.482216 2.421094 1.319624 0
M  V30 47 H -5.053990 2.962766 -1.044236 0
M  V30 48 H -2.953157 -0.859487 -0.821279 0
M  V30 49 H -0.762144 -4.577901 -0.422342 0
M  V30 50 H 1.288503 -3.273262 -0.687414 0
M  V30 END ATOM
M  V30 BEGIN BOND
M  V30 1 1 1 2
M  V30 2 1 2 3
M  V30 3 1 3 4
M  V30 4 1 4 5
M  V30 5 1 3 6
M  V30 6 1 6 7
M  V30 7 1 7 8
M  V30 8 1 8 9
M  V30 9 2 9 10
M  V30 10 1 9 11
M  V30 11 1 11 12
M  V30 12 2 12 13
M  V30 13 1 13 14
M  V30 14 2 14 15
M  V30 15 1 15 16
M  V30 16 2 16 17
M  V30 17 1 17 18
M  V30 18 2 18 19
M  V30 19 1 19 20
M  V30 20 1 13 21
M  V30 21 2 21 22
M  V30 22 1 22 23
M  V30 23 1 23 24
M  V30 24 2 23 25
M  V30 25 1 25 26
M  V30 26 2 26 27
M  V30 27 1 27 8
M  V30 28 1 19 14
M  V30 29 1 27 21
M  V30 30 1 1 28
M  V30 31 1 1 29
M  V30 32 1 1 30
M  V30 33 1 2 31
M  V30 34 1 2 32
M  V30 35 1 4 33
M  V30 36 1 4 34
M  V30 37 1 5 35
M  V30 38 1 5 36
M  V30 39 1 5 37
M  V30 40 1 6 38
M  V30 41 1 6 39
M  V30 42 1 7 40
M  V30 43 1 7 41
M  V30 44 1 11 42
M  V30 45 1 11 43
M  V30 46 1 15 44
M  V30 47 1 16 45
M  V30 48 1 17 46
M  V30 49 1 18 47
M  V30 50 1 22 48
M  V30 51 1 25 49
M  V30 52 1 26 50
M  V30 END BOND
M  V30 END CTAB
M  END
>  <Dataset>  (400) 
OralDrugs

>  <Ligand_Instance>  (400) 
nan

>  <PDB_ID>  (400) 
nan

>  <Standardized_SMILES>  (400) 
CCN(CC)CCN1C(=O)CN=C(c2ccccc2F)c2cc(Cl)ccc21

>  <Name>  (400) 
Flurazepam

>  <Pocket>  (400) 
nan

>  <ATP_Site>  (400) 
nan

>  <Peripheral>  (400) 
nan

>  <Num_H_Atoms_ProtBoundConf>  (400) 
nan

>  <Num_Resolved_Atoms>  (400) 
nan

>  <Num_Not_Resolved_Atoms>  (400) 
nan

$$$$
CHEMBL563
     RDKit          3D

  0  0  0  0  0  0  0  0  0  0999 V3000
M  V30 BEGIN CTAB
M  V30 COUNTS 31 32 0 0 0
M  V30 BEGIN ATOM
M  V30 1 C -0.838819 -3.314298 3.692239 0
M  V30 2 C -0.280200 -3.564016 2.288942 0
M  V30 3 C 1.023704 -4.251205 2.481768 0
M  V30 4 O 1.401056 -5.394323 2.088560 0
M  V30 5 O 2.048306 -3.634833 3.183171 0
M  V30 6 C -0.097822 -2.284944 1.552437 0
M  V30 7 C 0.718094 -1.241895 1.950480 0
M  V30 8 C 0.830060 -0.084558 1.204661 0
M  V30 9 C 0.108099 0.043152 0.023245 0
M  V30 10 C 0.226792 1.274826 -0.771189 0
M  V30 11 C 1.448547 1.861295 -1.032427 0
M  V30 12 C 1.512451 3.018486 -1.783600 0
M  V30 13 C 0.352267 3.584352 -2.270591 0
M  V30 14 C -0.902749 3.019232 -2.026669 0
M  V30 15 C -0.950320 1.849641 -1.265738 0
M  V30 16 C -0.716488 -0.980183 -0.403337 0
M  V30 17 F -1.413892 -0.850607 -1.549475 0
M  V30 18 C -0.804672 -2.126996 0.369775 0
M  V30 19 H -1.431884 -2.369216 3.732719 0
M  V30 20 H -1.522951 -4.128182 3.994198 0
M  V30 21 H -0.050532 -3.239933 4.451164 0
M  V30 22 H -0.984602 -4.249939 1.776029 0
M  V30 23 H 2.684077 -4.159054 3.802908 0
M  V30 24 H 1.262383 -1.375779 2.870836 0
M  V30 25 H 1.479318 0.716371 1.544344 0
M  V30 26 H 2.372367 1.411258 -0.645004 0
M  V30 27 H 2.490939 3.466458 -1.978591 0
M  V30 28 H 0.394144 4.500913 -2.866445 0
M  V30 29 H -1.813108 3.482629 -2.421478 0
M  V30 30 H -1.925001 1.384054 -1.058819 0
M  V30 31 H -1.464928 -2.887019 -0.018650 0
M  V30 END ATOM
M  V30 BEGIN BOND
M  V30 1 1 1 2
M  V30 2 1 2 3
M  V30 3 2 3 4
M  V30 4 1 3 5
M  V30 5 1 2 6
M  V30 6 2 6 7
M  V30 7 1 7 8
M  V30 8 2 8 9
M  V30 9 1 9 10
M  V30 10 2 10 11
M  V30 11 1 11 12
M  V30 12 2 12 13
M  V30 13 1 13 14
M  V30 14 2 14 15
M  V30 15 1 9 16
M  V30 16 1 16 17
M  V30 17 2 16 18
M  V30 18 1 18 6
M  V30 19 1 15 10
M  V30 20 1 1 19
M  V30 21 1 1 20
M  V30 22 1 1 21
M  V30 23 1 2 22
M  V30 24 1 5 23
M  V30 25 1 7 24
M  V30 26 1 8 25
M  V30 27 1 11 26
M  V30 28 1 12 27
M  V30 29 1 13 28
M  V30 30 1 14 29
M  V30 31 1 15 30
M  V30 32 1 18 31
M  V30 END BOND
M  V30 END CTAB
M  END
>  <Dataset>  (401) 
OralDrugs

>  <Ligand_Instance>  (401) 
nan

>  <PDB_ID>  (401) 
nan

>  <Standardized_SMILES>  (401) 
CC(C(=O)O)c1ccc(-c2ccccc2)c(F)c1

>  <Name>  (401) 
Flurbiprofen

>  <Pocket>  (401) 
nan

>  <ATP_Site>  (401) 
nan

>  <Peripheral>  (401) 
nan

>  <Num_H_Atoms_ProtBoundConf>  (401) 
nan

>  <Num_Resolved_Atoms>  (401) 
nan

>  <Num_Not_Resolved_Atoms>  (401) 
nan

$$$$
CHEMBL2220442
     RDKit          3D

  0  0  0  0  0  0  0  0  0  0999 V3000
M  V30 BEGIN CTAB
M  V30 COUNTS 56 58 0 0 0
M  V30 BEGIN ATOM
M  V30 1 C -1.027894 0.338823 -2.791875 0
M  V30 2 C 0.176866 -0.164659 -1.970446 0
M  V30 3 C 1.289138 -0.591149 -2.917396 0
M  V30 4 N -0.262762 -1.284523 -1.202367 0
M  V30 5 C -0.341138 -1.530853 0.095588 0
M  V30 6 C -0.002447 -0.808843 1.267421 0
M  V30 7 C 0.540247 0.340519 1.568826 0
M  V30 8 C 0.799268 0.897664 2.909518 0
M  V30 9 O 1.756229 0.125992 3.584970 0
M  V30 10 C 1.340009 2.302430 2.777838 0
M  V30 11 C 0.339168 3.153231 2.077827 0
M  V30 12 O -0.827534 3.137606 2.851669 0
M  V30 13 C 0.768671 4.603477 1.990478 0
M  V30 14 C 2.047148 4.785429 1.260956 0
M  V30 15 O 3.085871 4.463746 1.925566 0
M  V30 16 O 2.812341 5.141461 0.161994 0
M  V30 17 C -0.871952 -2.818983 0.225289 0
M  V30 18 C -1.172097 -3.593112 1.454398 0
M  V30 19 C -2.358391 -3.620014 2.157621 0
M  V30 20 C -2.467121 -4.396561 3.290829 0
M  V30 21 C -1.395515 -5.166675 3.752064 0
M  V30 22 F -1.571180 -5.909620 4.873370 0
M  V30 23 C -0.202775 -5.122748 3.021074 0
M  V30 24 C -0.099172 -4.343595 1.887269 0
M  V30 25 C -1.096213 -3.306592 -1.038909 0
M  V30 26 C -1.608680 -4.529834 -1.434803 0
M  V30 27 C -1.752091 -4.821389 -2.769411 0
M  V30 28 C -1.384127 -3.891969 -3.700930 0
M  V30 29 C -0.881152 -2.693905 -3.250900 0
M  V30 30 C -0.705026 -2.322815 -1.929990 0
M  V30 31 H -0.717287 0.394353 -3.848706 0
M  V30 32 H -1.326571 1.349795 -2.439026 0
M  V30 33 H -1.815062 -0.425794 -2.691665 0
M  V30 34 H 0.549915 0.661888 -1.385249 0
M  V30 35 H 2.250581 -0.044826 -2.682453 0
M  V30 36 H 1.029574 -0.239809 -3.933427 0
M  V30 37 H 1.498145 -1.654690 -2.909592 0
M  V30 38 H -0.205614 -1.223426 2.252792 0
M  V30 39 H 0.826268 0.908675 0.710794 0
M  V30 40 H -0.120867 0.855073 3.509035 0
M  V30 41 H 2.535578 0.651077 3.829645 0
M  V30 42 H 2.331473 2.283624 2.245646 0
M  V30 43 H 1.518304 2.742414 3.775332 0
M  V30 44 H 0.101864 2.730021 1.094595 0
M  V30 45 H -1.466694 3.853447 2.587965 0
M  V30 46 H -0.065901 5.182033 1.528591 0
M  V30 47 H 0.911904 5.009758 3.010535 0
M  V30 48 H 3.094924 4.476338 -0.558069 0
M  V30 49 H -3.138770 -3.000101 1.739513 0
M  V30 50 H -3.437613 -4.361055 3.788343 0
M  V30 51 H 0.581721 -5.758323 3.457581 0
M  V30 52 H 0.897150 -4.448097 1.472872 0
M  V30 53 H -1.907557 -5.281706 -0.720895 0
M  V30 54 H -2.151288 -5.776263 -3.060083 0
M  V30 55 H -1.479204 -4.077672 -4.771379 0
M  V30 56 H -0.599157 -1.985137 -4.007386 0
M  V30 END ATOM
M  V30 BEGIN BOND
M  V30 1 1 1 2
M  V30 2 1 2 3
M  V30 3 1 2 4
M  V30 4 1 4 5
M  V30 5 1 5 6
M  V30 6 2 6 7
M  V30 7 1 7 8
M  V30 8 1 8 9
M  V30 9 1 8 10
M  V30 10 1 10 11
M  V30 11 1 11 12
M  V30 12 1 11 13
M  V30 13 1 13 14
M  V30 14 2 14 15
M  V30 15 1 14 16
M  V30 16 2 5 17
M  V30 17 1 17 18
M  V30 18 2 18 19
M  V30 19 1 19 20
M  V30 20 2 20 21
M  V30 21 1 21 22
M  V30 22 1 21 23
M  V30 23 2 23 24
M  V30 24 1 17 25
M  V30 25 2 25 26
M  V30 26 1 26 27
M  V30 27 2 27 28
M  V30 28 1 28 29
M  V30 29 2 29 30
M  V30 30 1 30 4
M  V30 31 1 24 18
M  V30 32 1 30 25
M  V30 33 1 1 31
M  V30 34 1 1 32
M  V30 35 1 1 33
M  V30 36 1 2 34
M  V30 37 1 3 35
M  V30 38 1 3 36
M  V30 39 1 3 37
M  V30 40 1 6 38
M  V30 41 1 7 39
M  V30 42 1 8 40
M  V30 43 1 9 41
M  V30 44 1 10 42
M  V30 45 1 10 43
M  V30 46 1 11 44
M  V30 47 1 12 45
M  V30 48 1 13 46
M  V30 49 1 13 47
M  V30 50 1 16 48
M  V30 51 1 19 49
M  V30 52 1 20 50
M  V30 53 1 23 51
M  V30 54 1 24 52
M  V30 55 1 26 53
M  V30 56 1 27 54
M  V30 57 1 28 55
M  V30 58 1 29 56
M  V30 END BOND
M  V30 END CTAB
M  END
>  <Dataset>  (402) 
OralDrugs

>  <Ligand_Instance>  (402) 
nan

>  <PDB_ID>  (402) 
nan

>  <Standardized_SMILES>  (402) 
CC(C)n1c(/C=C/C(O)CC(O)CC(=O)O)c(-c2ccc(F)cc2)c2ccccc21

>  <Name>  (402) 
Fluvastatin

>  <Pocket>  (402) 
nan

>  <ATP_Site>  (402) 
nan

>  <Peripheral>  (402) 
nan

>  <Num_H_Atoms_ProtBoundConf>  (402) 
nan

>  <Num_Resolved_Atoms>  (402) 
nan

>  <Num_Not_Resolved_Atoms>  (402) 
nan

$$$$
CHEMBL814
     RDKit          3D

  0  0  0  0  0  0  0  0  0  0999 V3000
M  V30 BEGIN CTAB
M  V30 COUNTS 43 43 0 0 0
M  V30 BEGIN ATOM
M  V30 1 C -0.778614 -5.447665 1.360539 0
M  V30 2 O -0.154097 -4.402790 0.685594 0
M  V30 3 C -0.946168 -4.026689 -0.398590 0
M  V30 4 C -0.241118 -2.876392 -1.127088 0
M  V30 5 C -0.121183 -1.773995 -0.092390 0
M  V30 6 C 0.562040 -0.553428 -0.663853 0
M  V30 7 C 0.633972 0.470333 0.403186 0
M  V30 8 N 1.841332 0.707850 0.796514 0
M  V30 9 O 2.931563 0.037966 0.237543 0
M  V30 10 C 4.192003 0.573846 0.554129 0
M  V30 11 C 5.318970 -0.205956 -0.088896 0
M  V30 12 N 5.241151 -1.575956 0.405850 0
M  V30 13 C -0.416757 1.190650 1.071748 0
M  V30 14 C -0.078098 2.043148 2.099547 0
M  V30 15 C -1.018687 2.785832 2.783114 0
M  V30 16 C -2.353200 2.693897 2.449717 0
M  V30 17 C -3.361765 3.489891 3.182751 0
M  V30 18 F -2.803563 3.944653 4.345221 0
M  V30 19 F -3.810274 4.590936 2.476669 0
M  V30 20 F -4.461698 2.712294 3.564549 0
M  V30 21 C -2.754862 1.857562 1.429061 0
M  V30 22 C -1.757163 1.148867 0.793561 0
M  V30 23 H -0.164064 -5.779823 2.247873 0
M  V30 24 H -0.941298 -6.328575 0.738760 0
M  V30 25 H -1.738381 -5.099932 1.843111 0
M  V30 26 H -1.928902 -3.726976 -0.012738 0
M  V30 27 H -0.952736 -4.884392 -1.094521 0
M  V30 28 H 0.769332 -3.192848 -1.383985 0
M  V30 29 H -0.856493 -2.511196 -1.956614 0
M  V30 30 H 0.517497 -2.231599 0.723658 0
M  V30 31 H -1.109192 -1.544903 0.327035 0
M  V30 32 H -0.088317 -0.128162 -1.491809 0
M  V30 33 H 1.518248 -0.771281 -1.128667 0
M  V30 34 H 4.381640 0.589878 1.650532 0
M  V30 35 H 4.288235 1.610007 0.165527 0
M  V30 36 H 5.293230 -0.214469 -1.176933 0
M  V30 37 H 6.306112 0.179262 0.234064 0
M  V30 38 H 6.163293 -1.998533 0.590831 0
M  V30 39 H 4.542837 -1.668004 1.158520 0
M  V30 40 H 0.951578 2.192116 2.445484 0
M  V30 41 H -0.743931 3.451947 3.587935 0
M  V30 42 H -3.787854 1.776154 1.159347 0
M  V30 43 H -2.109651 0.517092 -0.007094 0
M  V30 END ATOM
M  V30 BEGIN BOND
M  V30 1 1 1 2
M  V30 2 1 2 3
M  V30 3 1 3 4
M  V30 4 1 4 5
M  V30 5 1 5 6
M  V30 6 1 6 7
M  V30 7 2 7 8
M  V30 8 1 8 9
M  V30 9 1 9 10
M  V30 10 1 10 11
M  V30 11 1 11 12
M  V30 12 1 7 13
M  V30 13 2 13 14
M  V30 14 1 14 15
M  V30 15 2 15 16
M  V30 16 1 16 17
M  V30 17 1 17 18
M  V30 18 1 17 19
M  V30 19 1 17 20
M  V30 20 1 16 21
M  V30 21 2 21 22
M  V30 22 1 22 13
M  V30 23 1 1 23
M  V30 24 1 1 24
M  V30 25 1 1 25
M  V30 26 1 3 26
M  V30 27 1 3 27
M  V30 28 1 4 28
M  V30 29 1 4 29
M  V30 30 1 5 30
M  V30 31 1 5 31
M  V30 32 1 6 32
M  V30 33 1 6 33
M  V30 34 1 10 34
M  V30 35 1 10 35
M  V30 36 1 11 36
M  V30 37 1 11 37
M  V30 38 1 12 38
M  V30 39 1 12 39
M  V30 40 1 14 40
M  V30 41 1 15 41
M  V30 42 1 21 42
M  V30 43 1 22 43
M  V30 END BOND
M  V30 END CTAB
M  END
>  <Dataset>  (403) 
OralDrugs

>  <Ligand_Instance>  (403) 
nan

>  <PDB_ID>  (403) 
nan

>  <Standardized_SMILES>  (403) 
COCCCC/C(=N\OCCN)c1ccc(C(F)(F)F)cc1

>  <Name>  (403) 
Fluvoxamine

>  <Pocket>  (403) 
nan

>  <ATP_Site>  (403) 
nan

>  <Peripheral>  (403) 
nan

>  <Num_H_Atoms_ProtBoundConf>  (403) 
nan

>  <Num_Resolved_Atoms>  (403) 
nan

>  <Num_Not_Resolved_Atoms>  (403) 
nan

$$$$
CHEMBL1622
     RDKit          3D

  0  0  0  0  0  0  0  0  0  0999 V3000
M  V30 BEGIN CTAB
M  V30 COUNTS 51 53 0 0 0
M  V30 BEGIN ATOM
M  V30 1 N 3.786806 -2.828858 7.973413 0
M  V30 2 C 3.975918 -2.275787 6.677427 0
M  V30 3 N 4.659263 -1.120829 6.533596 0
M  V30 4 C 4.815978 -0.629372 5.280888 0
M  V30 5 O 5.451717 0.454762 5.094888 0
M  V30 6 C 4.300192 -1.271309 4.151936 0
M  V30 7 N 4.469090 -0.764388 2.924241 0
M  V30 8 C 3.961861 -1.398008 1.824361 0
M  V30 9 C 4.290199 -0.654529 0.582496 0
M  V30 10 N 3.333909 0.402283 0.346451 0
M  V30 11 C 1.974856 0.479327 0.033393 0
M  V30 12 C 1.308389 1.698412 -0.108924 0
M  V30 13 C -0.024437 1.748878 -0.428264 0
M  V30 14 C -0.752248 0.621019 -0.619418 0
M  V30 15 C -2.155235 0.802645 -0.954240 0
M  V30 16 O -2.644892 1.951159 -1.057049 0
M  V30 17 N -3.036997 -0.289109 -1.180322 0
M  V30 18 C -4.446343 -0.226843 -1.518353 0 CFG=1
M  V30 19 C -4.651456 -0.951698 -2.829385 0
M  V30 20 C -3.876997 -0.360150 -3.954735 0
M  V30 21 C -4.221182 1.052564 -4.231375 0
M  V30 22 O -3.588680 1.615873 -5.186340 0
M  V30 23 O -5.026617 2.113120 -3.838705 0
M  V30 24 C -5.296924 -0.826795 -0.473627 0
M  V30 25 O -4.491491 -1.213038 0.407986 0
M  V30 26 O -6.219259 -1.353338 0.416094 0
M  V30 27 C -0.174458 -0.624164 -0.498808 0
M  V30 28 C 1.173326 -0.634554 -0.175474 0
M  V30 29 C 3.282061 -2.566736 2.065157 0
M  V30 30 N 3.128663 -3.049858 3.306933 0
M  V30 31 C 3.615320 -2.445252 4.384092 0
M  V30 32 N 3.461302 -2.929325 5.621433 0
M  V30 33 H 4.516165 -2.747853 8.715644 0
M  V30 34 H 2.959403 -3.352102 8.338054 0
M  V30 35 H 4.209950 -1.389277 -0.268459 0
M  V30 36 H 5.320409 -0.268656 0.617756 0
M  V30 37 H 3.787601 1.348806 0.438212 0
M  V30 38 H 1.864838 2.616498 0.037967 0
M  V30 39 H -0.457599 2.733881 -0.517940 0
M  V30 40 H -2.705590 -1.275662 -1.113381 0
M  V30 41 H -4.708232 0.831229 -1.568987 0
M  V30 42 H -5.735910 -0.982245 -3.053848 0
M  V30 43 H -4.345279 -2.013999 -2.734970 0
M  V30 44 H -2.786608 -0.445093 -3.783237 0
M  V30 45 H -4.091807 -0.985546 -4.855035 0
M  V30 46 H -5.855930 2.409544 -4.376624 0
M  V30 47 H -6.788652 -2.166743 0.169720 0
M  V30 48 H -0.743173 -1.508197 -0.648177 0
M  V30 49 H 1.578303 -1.614142 -0.099644 0
M  V30 50 H 2.919220 -3.023034 1.169992 0
M  V30 51 H 2.928959 -3.820218 5.687849 0
M  V30 END ATOM
M  V30 BEGIN BOND
M  V30 1 1 1 2
M  V30 2 2 2 3
M  V30 3 1 3 4
M  V30 4 2 4 5
M  V30 5 1 4 6
M  V30 6 2 6 7
M  V30 7 1 7 8
M  V30 8 1 8 9
M  V30 9 1 9 10
M  V30 10 1 10 11
M  V30 11 2 11 12
M  V30 12 1 12 13
M  V30 13 2 13 14
M  V30 14 1 14 15
M  V30 15 2 15 16
M  V30 16 1 15 17
M  V30 17 1 17 18
M  V30 18 1 18 19
M  V30 19 1 19 20
M  V30 20 1 20 21
M  V30 21 2 21 22
M  V30 22 1 21 23
M  V30 23 1 18 24
M  V30 24 2 24 25
M  V30 25 1 24 26
M  V30 26 1 14 27
M  V30 27 2 27 28
M  V30 28 2 8 29
M  V30 29 1 29 30
M  V30 30 2 30 31
M  V30 31 1 31 32
M  V30 32 1 32 2
M  V30 33 1 31 6
M  V30 34 1 28 11
M  V30 35 1 1 33
M  V30 36 1 1 34
M  V30 37 1 9 35
M  V30 38 1 9 36
M  V30 39 1 10 37
M  V30 40 1 12 38
M  V30 41 1 13 39
M  V30 42 1 17 40
M  V30 43 1 18 41 CFG=3
M  V30 44 1 19 42
M  V30 45 1 19 43
M  V30 46 1 20 44
M  V30 47 1 20 45
M  V30 48 1 23 46
M  V30 49 1 26 47
M  V30 50 1 27 48
M  V30 51 1 28 49
M  V30 52 1 29 50
M  V30 53 1 32 51
M  V30 END BOND
M  V30 END CTAB
M  END
>  <Dataset>  (404) 
OralDrugs

>  <Ligand_Instance>  (404) 
nan

>  <PDB_ID>  (404) 
nan

>  <Standardized_SMILES>  (404) 
Nc1nc(=O)c2nc(CNc3ccc(C(=O)N[C@@H](CCC(=O)O)C(=O)O)cc3)cnc2[nH]1

>  <Name>  (404) 
Folic Acid

>  <Pocket>  (404) 
nan

>  <ATP_Site>  (404) 
nan

>  <Peripheral>  (404) 
nan

>  <Num_H_Atoms_ProtBoundConf>  (404) 
nan

>  <Num_Resolved_Atoms>  (404) 
nan

>  <Num_Not_Resolved_Atoms>  (404) 
nan

$$$$
CHEMBL1757
     RDKit          3D

  0  0  0  0  0  0  0  0  0  0999 V3000
M  V30 BEGIN CTAB
M  V30 COUNTS 15 15 0 0 0
M  V30 BEGIN ATOM
M  V30 1 C 0.977085 -2.005090 1.016508 0
M  V30 2 C 0.081687 -0.926792 0.523763 0 CFG=2
M  V30 3 O 0.728161 -0.253204 -0.622505 0
M  V30 4 C 0.335146 0.465936 0.542813 0 CFG=2
M  V30 5 P 1.643043 1.279970 1.454604 0
M  V30 6 O 2.442703 0.360415 2.321004 0
M  V30 7 O 2.674214 2.081280 0.350699 0
M  V30 8 O 0.965197 2.496351 2.444669 0
M  V30 9 H 0.668475 -2.345398 2.026316 0
M  V30 10 H 2.043490 -1.762878 0.994805 0
M  V30 11 H 0.839631 -2.878624 0.313752 0
M  V30 12 H -0.944643 -1.299022 0.286324 0
M  V30 13 H -0.507721 1.148684 0.306855 0
M  V30 14 H 3.308265 2.671874 0.847424 0
M  V30 15 H 1.036026 2.265337 3.402288 0
M  V30 END ATOM
M  V30 BEGIN BOND
M  V30 1 1 1 2
M  V30 2 1 2 3
M  V30 3 1 3 4
M  V30 4 1 4 5
M  V30 5 2 5 6
M  V30 6 1 5 7
M  V30 7 1 5 8
M  V30 8 1 4 2
M  V30 9 1 1 9
M  V30 10 1 1 10
M  V30 11 1 1 11
M  V30 12 1 2 12 CFG=3
M  V30 13 1 4 13 CFG=3
M  V30 14 1 7 14
M  V30 15 1 8 15
M  V30 END BOND
M  V30 END CTAB
M  END
>  <Dataset>  (405) 
OralDrugs

>  <Ligand_Instance>  (405) 
nan

>  <PDB_ID>  (405) 
nan

>  <Standardized_SMILES>  (405) 
C[C@@H]1O[C@@H]1P(=O)(O)O

>  <Name>  (405) 
Fosfomycin

>  <Pocket>  (405) 
nan

>  <ATP_Site>  (405) 
nan

>  <Peripheral>  (405) 
nan

>  <Num_H_Atoms_ProtBoundConf>  (405) 
nan

>  <Num_Resolved_Atoms>  (405) 
nan

>  <Num_Not_Resolved_Atoms>  (405) 
nan

$$$$
CHEMBL1200331
     RDKit          3D

  0  0  0  0  0  0  0  0  0  0999 V3000
M  V30 BEGIN CTAB
M  V30 COUNTS 19 18 0 0 0
M  V30 BEGIN ATOM
M  V30 1 N 1.964965 -0.767101 -0.045748 0
M  V30 2 C 0.952537 -0.085748 0.712954 0
M  V30 3 C -0.160802 0.225007 -0.244465 0
M  V30 4 O -1.226381 0.885488 0.322715 0
M  V30 5 C 1.512318 1.145674 1.376644 0
M  V30 6 O 2.539194 0.751874 2.227557 0
M  V30 7 C 0.466327 -1.034932 1.805706 0
M  V30 8 O -0.052117 -2.169540 1.168250 0
M  V30 9 H 2.581475 -0.152534 -0.602804 0
M  V30 10 H 2.407182 -1.551838 0.439938 0
M  V30 11 H -0.525888 -0.755092 -0.634248 0
M  V30 12 H 0.279560 0.760244 -1.120002 0
M  V30 13 H -0.987935 1.815370 0.573546 0
M  V30 14 H 1.894796 1.859311 0.620192 0
M  V30 15 H 0.751847 1.666233 1.962794 0
M  V30 16 H 3.358803 0.649771 1.674165 0
M  V30 17 H -0.278059 -0.563109 2.473260 0
M  V30 18 H 1.356366 -1.401306 2.378641 0
M  V30 19 H -1.035688 -1.986145 1.041836 0
M  V30 END ATOM
M  V30 BEGIN BOND
M  V30 1 1 1 2
M  V30 2 1 2 3
M  V30 3 1 3 4
M  V30 4 1 2 5
M  V30 5 1 5 6
M  V30 6 1 2 7
M  V30 7 1 7 8
M  V30 8 1 1 9
M  V30 9 1 1 10
M  V30 10 1 3 11
M  V30 11 1 3 12
M  V30 12 1 4 13
M  V30 13 1 5 14
M  V30 14 1 5 15
M  V30 15 1 6 16
M  V30 16 1 7 17
M  V30 17 1 7 18
M  V30 18 1 8 19
M  V30 END BOND
M  V30 END CTAB
M  END
>  <Dataset>  (406) 
OralDrugs

>  <Ligand_Instance>  (406) 
nan

>  <PDB_ID>  (406) 
nan

>  <Standardized_SMILES>  (406) 
NC(CO)(CO)CO

>  <Name>  (406) 
Fosfomycin Tromethamine

>  <Pocket>  (406) 
nan

>  <ATP_Site>  (406) 
nan

>  <Peripheral>  (406) 
nan

>  <Num_H_Atoms_ProtBoundConf>  (406) 
nan

>  <Num_Resolved_Atoms>  (406) 
nan

>  <Num_Not_Resolved_Atoms>  (406) 
nan

$$$$
CHEMBL1279
     RDKit          3D

  0  0  0  0  0  0  0  0  0  0999 V3000
M  V30 BEGIN CTAB
M  V30 COUNTS 35 37 0 0 0
M  V30 BEGIN ATOM
M  V30 1 C -3.051467 -2.341366 1.644840 0
M  V30 2 N -1.907447 -3.127962 2.108312 0
M  V30 3 C -0.746099 -2.715170 1.348102 0 CFG=2
M  V30 4 C 0.441125 -3.498908 1.795733 0
M  V30 5 C 1.763992 -2.853104 1.586361 0
M  V30 6 C 1.726672 -1.559427 0.887437 0
M  V30 7 N 2.678144 -0.956834 0.152713 0
M  V30 8 C 2.199501 0.213939 -0.291759 0
M  V30 9 C 2.722976 1.243511 -1.081516 0
M  V30 10 C 1.970607 2.382536 -1.392817 0
M  V30 11 C 0.683086 2.479292 -0.902417 0
M  V30 12 C -0.105210 3.664683 -1.224107 0
M  V30 13 N -1.429956 3.824430 -0.752595 0
M  V30 14 O 0.332603 4.599896 -1.925674 0
M  V30 15 C 0.108680 1.499707 -0.118758 0
M  V30 16 C 0.914328 0.410699 0.142418 0
M  V30 17 C 0.634467 -0.719905 0.885089 0
M  V30 18 C -0.517780 -1.249612 1.664222 0
M  V30 19 H -3.031862 -2.191062 0.550384 0
M  V30 20 H -4.012991 -2.889141 1.838556 0
M  V30 21 H -3.156031 -1.387489 2.219165 0
M  V30 22 H -1.827446 -2.942315 3.123356 0
M  V30 23 H -0.966665 -2.882639 0.283004 0
M  V30 24 H 0.303403 -3.818917 2.851963 0
M  V30 25 H 0.438508 -4.464888 1.211480 0
M  V30 26 H 2.489350 -3.540654 1.092083 0
M  V30 27 H 2.212573 -2.647556 2.598557 0
M  V30 28 H 3.631419 -1.329653 -0.044010 0
M  V30 29 H 3.748003 1.115534 -1.443789 0
M  V30 30 H 2.412946 3.161033 -2.009656 0
M  V30 31 H -2.188449 4.344877 -1.238338 0
M  V30 32 H -2.007039 3.547001 0.064106 0
M  V30 33 H -0.894520 1.580159 0.260555 0
M  V30 34 H -0.262764 -1.176535 2.728817 0
M  V30 35 H -1.412496 -0.645614 1.417474 0
M  V30 END ATOM
M  V30 BEGIN BOND
M  V30 1 1 1 2
M  V30 2 1 2 3
M  V30 3 1 3 4
M  V30 4 1 4 5
M  V30 5 1 5 6
M  V30 6 1 6 7
M  V30 7 1 7 8
M  V30 8 2 8 9
M  V30 9 1 9 10
M  V30 10 2 10 11
M  V30 11 1 11 12
M  V30 12 1 12 13
M  V30 13 2 12 14
M  V30 14 1 11 15
M  V30 15 2 15 16
M  V30 16 1 16 17
M  V30 17 1 17 18
M  V30 18 1 18 3
M  V30 19 2 17 6
M  V30 20 1 16 8
M  V30 21 1 1 19
M  V30 22 1 1 20
M  V30 23 1 1 21
M  V30 24 1 2 22
M  V30 25 1 3 23 CFG=3
M  V30 26 1 4 24
M  V30 27 1 4 25
M  V30 28 1 5 26
M  V30 29 1 5 27
M  V30 30 1 7 28
M  V30 31 1 9 29
M  V30 32 1 10 30
M  V30 33 1 13 31
M  V30 34 1 13 32
M  V30 35 1 15 33
M  V30 36 1 18 34
M  V30 37 1 18 35
M  V30 END BOND
M  V30 END CTAB
M  END
>  <Dataset>  (407) 
OralDrugs

>  <Ligand_Instance>  (407) 
nan

>  <PDB_ID>  (407) 
nan

>  <Standardized_SMILES>  (407) 
CN[C@@H]1CCc2[nH]c3ccc(C(N)=O)cc3c2C1

>  <Name>  (407) 
Frovatriptan

>  <Pocket>  (407) 
nan

>  <ATP_Site>  (407) 
nan

>  <Peripheral>  (407) 
nan

>  <Num_H_Atoms_ProtBoundConf>  (407) 
nan

>  <Num_Resolved_Atoms>  (407) 
nan

>  <Num_Not_Resolved_Atoms>  (407) 
nan

$$$$
CHEMBL4303214
     RDKit          3D

  0  0  0  0  0  0  0  0  0  0999 V3000
M  V30 BEGIN CTAB
M  V30 COUNTS 48 51 0 0 0
M  V30 BEGIN ATOM
M  V30 1 C -0.539279 -6.150850 4.430263 0
M  V30 2 N -0.437916 -4.785273 4.021054 0
M  V30 3 C 0.801485 -4.250058 3.614370 0
M  V30 4 O 1.612525 -5.229374 3.726197 0
M  V30 5 C 1.307212 -2.982696 3.150192 0
M  V30 6 C 2.639539 -2.859030 2.834662 0
M  V30 7 C 3.767067 -3.814647 2.865845 0
M  V30 8 O 2.849777 -1.634849 2.445980 0
M  V30 9 C 1.791079 -0.887101 2.458677 0
M  V30 10 C 1.475976 0.408346 2.160635 0
M  V30 11 C 0.173553 0.911580 2.293503 0
M  V30 12 O -0.038882 2.199291 1.977808 0
M  V30 13 C -0.381551 2.868635 0.866494 0
M  V30 14 N -0.431458 4.191710 1.219700 0
M  V30 15 C -0.756440 5.152100 0.302457 0
M  V30 16 N -1.040080 4.825845 -0.987457 0
M  V30 17 C -1.008317 3.548242 -1.395194 0
M  V30 18 C -1.270090 3.066289 -2.660459 0
M  V30 19 C -1.204881 1.721956 -2.959031 0
M  V30 20 O -1.473624 1.270436 -4.239845 0
M  V30 21 C -1.821462 2.081398 -5.312728 0
M  V30 22 C -0.865599 0.789472 -1.971757 0
M  V30 23 O -0.818134 -0.548030 -2.339434 0
M  V30 24 C -0.489528 -1.552617 -1.425609 0
M  V30 25 C -0.603081 1.262808 -0.707140 0
M  V30 26 C -0.678625 2.608878 -0.449935 0
M  V30 27 C -0.797161 0.011529 2.751267 0
M  V30 28 C -0.477717 -1.292814 3.050898 0
M  V30 29 C 0.813560 -1.731182 2.902106 0
M  V30 30 H -1.483771 -6.240018 5.013524 0
M  V30 31 H 0.322309 -6.404338 5.081968 0
M  V30 32 H -0.525031 -6.784853 3.517402 0
M  V30 33 H -1.204330 -4.101863 3.983797 0
M  V30 34 H 3.423347 -4.741423 2.339487 0
M  V30 35 H 3.914416 -4.105676 3.940148 0
M  V30 36 H 4.692004 -3.456873 2.422492 0
M  V30 37 H 2.279329 1.058319 1.808506 0
M  V30 38 H -0.830300 6.218848 0.450602 0
M  V30 39 H -1.531989 3.825248 -3.406155 0
M  V30 40 H -2.781442 2.611301 -5.042650 0
M  V30 41 H -2.042376 1.450124 -6.193464 0
M  V30 42 H -1.044049 2.811959 -5.596811 0
M  V30 43 H -1.376236 -1.811748 -0.839014 0
M  V30 44 H -0.144528 -2.437274 -2.017745 0
M  V30 45 H 0.379654 -1.216647 -0.828511 0
M  V30 46 H -0.354084 0.503419 -0.012499 0
M  V30 47 H -1.794350 0.389273 2.855120 0
M  V30 48 H -1.252495 -1.934987 3.395008 0
M  V30 END ATOM
M  V30 BEGIN BOND
M  V30 1 1 1 2
M  V30 2 1 2 3
M  V30 3 2 3 4
M  V30 4 1 3 5
M  V30 5 2 5 6
M  V30 6 1 6 7
M  V30 7 1 6 8
M  V30 8 1 8 9
M  V30 9 2 9 10
M  V30 10 1 10 11
M  V30 11 1 11 12
M  V30 12 1 12 13
M  V30 13 2 13 14
M  V30 14 1 14 15
M  V30 15 2 15 16
M  V30 16 1 16 17
M  V30 17 2 17 18
M  V30 18 1 18 19
M  V30 19 1 19 20
M  V30 20 1 20 21
M  V30 21 2 19 22
M  V30 22 1 22 23
M  V30 23 1 23 24
M  V30 24 1 22 25
M  V30 25 2 25 26
M  V30 26 2 11 27
M  V30 27 1 27 28
M  V30 28 2 28 29
M  V30 29 1 29 5
M  V30 30 1 29 9
M  V30 31 1 26 13
M  V30 32 1 26 17
M  V30 33 1 1 30
M  V30 34 1 1 31
M  V30 35 1 1 32
M  V30 36 1 2 33
M  V30 37 1 7 34
M  V30 38 1 7 35
M  V30 39 1 7 36
M  V30 40 1 10 37
M  V30 41 1 15 38
M  V30 42 1 18 39
M  V30 43 1 21 40
M  V30 44 1 21 41
M  V30 45 1 21 42
M  V30 46 1 24 43
M  V30 47 1 24 44
M  V30 48 1 24 45
M  V30 49 1 25 46
M  V30 50 1 27 47
M  V30 51 1 28 48
M  V30 END BOND
M  V30 END CTAB
M  END
>  <Dataset>  (408) 
OralDrugs

>  <Ligand_Instance>  (408) 
nan

>  <PDB_ID>  (408) 
nan

>  <Standardized_SMILES>  (408) 
CNC(=O)c1c(C)oc2cc(Oc3ncnc4cc(OC)c(OC)cc34)ccc12

>  <Name>  (408) 
Fruquintinib

>  <Pocket>  (408) 
nan

>  <ATP_Site>  (408) 
nan

>  <Peripheral>  (408) 
nan

>  <Num_H_Atoms_ProtBoundConf>  (408) 
nan

>  <Num_Resolved_Atoms>  (408) 
nan

>  <Num_Not_Resolved_Atoms>  (408) 
nan

$$$$
CHEMBL1103
     RDKit          3D

  0  0  0  0  0  0  0  0  0  0999 V3000
M  V30 BEGIN CTAB
M  V30 COUNTS 23 24 0 0 0
M  V30 BEGIN ATOM
M  V30 1 O 2.057270 -2.038294 3.139560 0
M  V30 2 C 0.896194 -2.407377 2.864692 0
M  V30 3 O 0.089604 -3.474436 3.256264 0
M  V30 4 C -0.830768 -3.687692 2.185212 0
M  V30 5 C -1.196627 -2.244543 1.869172 0
M  V30 6 N 0.123741 -1.617136 1.937531 0
M  V30 7 N 0.370447 -0.476650 1.165890 0
M  V30 8 C 1.466512 0.172261 1.127165 0
M  V30 9 C 1.238253 1.284256 0.178427 0
M  V30 10 C 1.384964 1.232338 -1.210116 0
M  V30 11 C 1.057926 2.519813 -1.647652 0
M  V30 12 C 0.737514 3.264808 -0.519391 0
M  V30 13 N 0.354438 4.636448 -0.620437 0 CHG=1 VAL=4
M  V30 14 O 0.087003 5.211762 0.461509 0
M  V30 15 O 0.305839 5.218609 -1.863926 0 CHG=-1 VAL=1
M  V30 16 O 0.856880 2.502816 0.520913 0
M  V30 17 H -1.732619 -4.240569 2.516228 0
M  V30 18 H -0.320060 -4.180529 1.336599 0
M  V30 19 H -1.658462 -2.146121 0.873442 0
M  V30 20 H -1.856119 -1.905813 2.707324 0
M  V30 21 H 2.286305 -0.179099 1.740120 0
M  V30 22 H 1.698891 0.296679 -1.695143 0
M  V30 23 H 1.097518 2.735310 -2.714268 0
M  V30 END ATOM
M  V30 BEGIN BOND
M  V30 1 2 1 2
M  V30 2 1 2 3
M  V30 3 1 3 4
M  V30 4 1 4 5
M  V30 5 1 5 6
M  V30 6 1 6 7
M  V30 7 2 7 8
M  V30 8 1 8 9
M  V30 9 2 9 10
M  V30 10 1 10 11
M  V30 11 2 11 12
M  V30 12 1 12 13
M  V30 13 2 13 14
M  V30 14 1 13 15
M  V30 15 1 12 16
M  V30 16 1 6 2
M  V30 17 1 16 9
M  V30 18 1 4 17
M  V30 19 1 4 18
M  V30 20 1 5 19
M  V30 21 1 5 20
M  V30 22 1 8 21
M  V30 23 1 10 22
M  V30 24 1 11 23
M  V30 END BOND
M  V30 END CTAB
M  END
>  <Dataset>  (409) 
OralDrugs

>  <Ligand_Instance>  (409) 
nan

>  <PDB_ID>  (409) 
nan

>  <Standardized_SMILES>  (409) 
O=C1OCCN1/N=C/c1ccc([N+](=O)[O-])o1

>  <Name>  (409) 
Furazolidone

>  <Pocket>  (409) 
nan

>  <ATP_Site>  (409) 
nan

>  <Peripheral>  (409) 
nan

>  <Num_H_Atoms_ProtBoundConf>  (409) 
nan

>  <Num_Resolved_Atoms>  (409) 
nan

>  <Num_Not_Resolved_Atoms>  (409) 
nan

$$$$
CHEMBL35
     RDKit          3D

  0  0  0  0  0  0  0  0  0  0999 V3000
M  V30 BEGIN CTAB
M  V30 COUNTS 32 33 0 0 0
M  V30 BEGIN ATOM
M  V30 1 N -0.717927 -3.880079 3.967232 0
M  V30 2 S 0.650601 -4.123853 2.935584 0
M  V30 3 O 1.887094 -4.172837 3.796700 0
M  V30 4 O 0.482106 -5.382037 2.169711 0
M  V30 5 C 0.721746 -2.778260 1.819777 0
M  V30 6 C 0.644158 -2.986567 0.465217 0
M  V30 7 C 0.691843 -1.987295 -0.478833 0
M  V30 8 C 0.600681 -2.367827 -1.880937 0
M  V30 9 O 0.615603 -1.760330 -2.962984 0
M  V30 10 O 0.461476 -3.683532 -2.261853 0
M  V30 11 C 0.826509 -0.686811 -0.042687 0
M  V30 12 N 0.898838 0.411473 -0.925722 0
M  V30 13 C 1.024833 1.826324 -0.738694 0
M  V30 14 C -0.159363 2.464206 -0.098979 0
M  V30 15 C -0.567940 2.820470 1.168235 0
M  V30 16 C -1.817328 3.399960 1.145062 0
M  V30 17 C -2.136391 3.373823 -0.194961 0
M  V30 18 O -1.169660 2.832550 -0.887572 0
M  V30 19 C 0.906813 -0.452072 1.314065 0
M  V30 20 C 0.856366 -1.472238 2.240685 0
M  V30 21 Cl 0.953934 -1.229336 3.983524 0
M  V30 22 H -0.441522 -3.231043 4.740020 0
M  V30 23 H -1.549322 -3.526459 3.454847 0
M  V30 24 H 0.538107 -4.017280 0.134957 0
M  V30 25 H -0.146277 -3.997209 -2.993263 0
M  V30 26 H 0.852452 0.186899 -1.941092 0
M  V30 27 H 1.232925 2.357895 -1.676760 0
M  V30 28 H 1.882155 2.073672 -0.050367 0
M  V30 29 H 0.081879 2.632410 2.001167 0
M  V30 30 H -2.344774 3.759582 2.016296 0
M  V30 31 H -3.079725 3.761418 -0.595928 0
M  V30 32 H 1.017997 0.490086 1.784927 0
M  V30 END ATOM
M  V30 BEGIN BOND
M  V30 1 1 1 2
M  V30 2 2 2 3
M  V30 3 2 2 4
M  V30 4 1 2 5
M  V30 5 2 5 6
M  V30 6 1 6 7
M  V30 7 1 7 8
M  V30 8 2 8 9
M  V30 9 1 8 10
M  V30 10 2 7 11
M  V30 11 1 11 12
M  V30 12 1 12 13
M  V30 13 1 13 14
M  V30 14 2 14 15
M  V30 15 1 15 16
M  V30 16 2 16 17
M  V30 17 1 17 18
M  V30 18 1 11 19
M  V30 19 2 19 20
M  V30 20 1 20 21
M  V30 21 1 20 5
M  V30 22 1 18 14
M  V30 23 1 1 22
M  V30 24 1 1 23
M  V30 25 1 6 24
M  V30 26 1 10 25
M  V30 27 1 12 26
M  V30 28 1 13 27
M  V30 29 1 13 28
M  V30 30 1 15 29
M  V30 31 1 16 30
M  V30 32 1 17 31
M  V30 33 1 19 32
M  V30 END BOND
M  V30 END CTAB
M  END
>  <Dataset>  (410) 
OralDrugs

>  <Ligand_Instance>  (410) 
nan

>  <PDB_ID>  (410) 
nan

>  <Standardized_SMILES>  (410) 
NS(=O)(=O)c1cc(C(=O)O)c(NCc2ccco2)cc1Cl

>  <Name>  (410) 
Furosemide

>  <Pocket>  (410) 
nan

>  <ATP_Site>  (410) 
nan

>  <Peripheral>  (410) 
nan

>  <Num_H_Atoms_ProtBoundConf>  (410) 
nan

>  <Num_Resolved_Atoms>  (410) 
nan

>  <Num_Not_Resolved_Atoms>  (410) 
nan

$$$$
CHEMBL3701238
     RDKit          3D

  0  0  0  0  0  0  0  0  0  0999 V3000
M  V30 BEGIN CTAB
M  V30 COUNTS 53 56 0 0 0
M  V30 BEGIN ATOM
M  V30 1 C 0.839285 -2.890713 5.969088 0
M  V30 2 C 1.908022 -2.137578 5.741730 0
M  V30 3 C 2.141066 -2.966607 4.563487 0
M  V30 4 O 1.272760 -3.850106 4.439578 0
M  V30 5 N 3.256721 -2.711207 3.722978 0
M  V30 6 C 4.405328 -1.809785 3.583136 0
M  V30 7 C 4.174141 -1.277410 2.190305 0
M  V30 8 C 3.791869 -2.541251 1.422500 0 CFG=2
M  V30 9 N 2.624745 -2.306334 0.592247 0
M  V30 10 N 1.747548 -1.300295 0.666170 0
M  V30 11 C 0.803494 -1.466970 -0.305523 0
M  V30 12 C -0.294420 -0.549039 -0.500119 0
M  V30 13 C -1.227067 0.209723 -0.649903 0
M  V30 14 C -2.341078 1.102732 -0.847717 0
M  V30 15 C -2.177694 2.468875 -0.947804 0
M  V30 16 C -3.249233 3.327345 -1.138018 0
M  V30 17 O -3.112931 4.705837 -1.242106 0
M  V30 18 C -1.801880 5.256365 -1.147420 0
M  V30 19 C -4.487317 2.726658 -1.220469 0
M  V30 20 C -4.712464 1.367069 -1.127644 0
M  V30 21 O -6.006169 0.853552 -1.223639 0
M  V30 22 C -7.052347 1.771855 -1.416258 0
M  V30 23 C -3.607177 0.555395 -0.937806 0
M  V30 24 C 1.105645 -2.622466 -1.011656 0
M  V30 25 C 0.467436 -3.221940 -2.078143 0
M  V30 26 N -0.701359 -2.615795 -2.597517 0
M  V30 27 N 0.983486 -4.365324 -2.585700 0
M  V30 28 C 2.093468 -4.848524 -2.014681 0
M  V30 29 N 2.708026 -4.256829 -0.975567 0
M  V30 30 C 2.253407 -3.115930 -0.416000 0
M  V30 31 C 3.536476 -3.513095 2.528310 0
M  V30 32 H 0.207391 -2.698200 6.828275 0
M  V30 33 H 0.253739 -2.625969 6.863379 0
M  V30 34 H 2.210768 -1.317516 6.366760 0
M  V30 35 H 4.395148 -0.977496 4.288797 0
M  V30 36 H 5.371020 -2.351471 3.564202 0
M  V30 37 H 3.290750 -0.610729 2.139975 0
M  V30 38 H 5.041249 -0.754609 1.753571 0
M  V30 39 H 4.662830 -2.830140 0.789364 0
M  V30 40 H -1.173958 2.881714 -0.874566 0
M  V30 41 H -1.188314 4.984054 -2.024765 0
M  V30 42 H -1.275640 4.854505 -0.239234 0
M  V30 43 H -1.802466 6.343863 -1.036721 0
M  V30 44 H -5.330157 3.416148 -1.371314 0
M  V30 45 H -7.065296 2.601646 -0.670419 0
M  V30 46 H -8.030647 1.234589 -1.293351 0
M  V30 47 H -7.067639 2.226694 -2.429133 0
M  V30 48 H -3.807094 -0.523489 -0.866452 0
M  V30 49 H -0.869278 -2.288885 -3.576875 0
M  V30 50 H -1.480983 -2.480218 -1.930150 0
M  V30 51 H 2.580938 -5.761206 -2.353282 0
M  V30 52 H 4.512243 -4.019745 2.764556 0
M  V30 53 H 2.809673 -4.295731 2.339149 0
M  V30 END ATOM
M  V30 BEGIN BOND
M  V30 1 2 1 2
M  V30 2 1 2 3
M  V30 3 2 3 4
M  V30 4 1 3 5
M  V30 5 1 5 6
M  V30 6 1 6 7
M  V30 7 1 7 8
M  V30 8 1 8 9
M  V30 9 1 9 10
M  V30 10 2 10 11
M  V30 11 1 11 12
M  V30 12 3 12 13
M  V30 13 1 13 14
M  V30 14 2 14 15
M  V30 15 1 15 16
M  V30 16 1 16 17
M  V30 17 1 17 18
M  V30 18 2 16 19
M  V30 19 1 19 20
M  V30 20 1 20 21
M  V30 21 1 21 22
M  V30 22 2 20 23
M  V30 23 1 11 24
M  V30 24 2 24 25
M  V30 25 1 25 26
M  V30 26 1 25 27
M  V30 27 2 27 28
M  V30 28 1 28 29
M  V30 29 2 29 30
M  V30 30 1 8 31
M  V30 31 1 31 5
M  V30 32 1 30 9
M  V30 33 1 23 14
M  V30 34 1 30 24
M  V30 35 1 1 32
M  V30 36 1 1 33
M  V30 37 1 2 34
M  V30 38 1 6 35
M  V30 39 1 6 36
M  V30 40 1 7 37
M  V30 41 1 7 38
M  V30 42 1 8 39 CFG=3
M  V30 43 1 15 40
M  V30 44 1 18 41
M  V30 45 1 18 42
M  V30 46 1 18 43
M  V30 47 1 19 44
M  V30 48 1 22 45
M  V30 49 1 22 46
M  V30 50 1 22 47
M  V30 51 1 23 48
M  V30 52 1 26 49
M  V30 53 1 26 50
M  V30 54 1 28 51
M  V30 55 1 31 52
M  V30 56 1 31 53
M  V30 END BOND
M  V30 END CTAB
M  END
>  <Dataset>  (411) 
OralDrugs

>  <Ligand_Instance>  (411) 
nan

>  <PDB_ID>  (411) 
nan

>  <Standardized_SMILES>  (411) 
C=CC(=O)N1CC[C@H](n2nc(C#Cc3cc(OC)cc(OC)c3)c3c(N)ncnc32)C1

>  <Name>  (411) 
Futibatinib

>  <Pocket>  (411) 
nan

>  <ATP_Site>  (411) 
nan

>  <Peripheral>  (411) 
nan

>  <Num_H_Atoms_ProtBoundConf>  (411) 
nan

>  <Num_Resolved_Atoms>  (411) 
nan

>  <Num_Not_Resolved_Atoms>  (411) 
nan

$$$$
CHEMBL940
     RDKit          3D

  0  0  0  0  0  0  0  0  0  0999 V3000
M  V30 BEGIN CTAB
M  V30 COUNTS 29 29 0 0 0
M  V30 BEGIN ATOM
M  V30 1 N 0.346150 1.165085 3.054293 0
M  V30 2 C 1.181412 0.707963 1.933043 0
M  V30 3 C 0.445811 -0.207686 1.024935 0
M  V30 4 C 1.353308 -0.642741 -0.104715 0
M  V30 5 C 2.551070 -1.353761 0.415197 0
M  V30 6 O 2.981607 -1.675303 1.572166 0
M  V30 7 O 3.400092 -1.763163 -0.607406 0
M  V30 8 C -0.778839 0.494373 0.543506 0
M  V30 9 C -1.400637 -0.297723 -0.559676 0
M  V30 10 C -1.571300 -1.748345 -0.282995 0
M  V30 11 C -0.866827 -2.324828 0.864922 0
M  V30 12 C -0.051217 -1.448400 1.724651 0
M  V30 13 H -0.267721 1.937766 2.730438 0
M  V30 14 H 0.987755 1.586180 3.770985 0
M  V30 15 H 1.419658 1.636804 1.349554 0
M  V30 16 H 2.094342 0.325289 2.392764 0
M  V30 17 H 1.658926 0.241651 -0.732617 0
M  V30 18 H 0.818032 -1.367309 -0.752596 0
M  V30 19 H 4.349103 -2.104336 -0.441467 0
M  V30 20 H -1.511107 0.529604 1.387373 0
M  V30 21 H -0.599209 1.513633 0.173794 0
M  V30 22 H -2.371444 0.203985 -0.778915 0
M  V30 23 H -0.790861 -0.116499 -1.473140 0
M  V30 24 H -1.340461 -2.293406 -1.247976 0
M  V30 25 H -2.665920 -1.943660 -0.158754 0
M  V30 26 H -1.552824 -2.898654 1.557747 0
M  V30 27 H -0.173121 -3.135320 0.488198 0
M  V30 28 H 0.763406 -2.006563 2.229995 0
M  V30 29 H -0.686289 -1.067035 2.575392 0
M  V30 END ATOM
M  V30 BEGIN BOND
M  V30 1 1 1 2
M  V30 2 1 2 3
M  V30 3 1 3 4
M  V30 4 1 4 5
M  V30 5 2 5 6
M  V30 6 1 5 7
M  V30 7 1 3 8
M  V30 8 1 8 9
M  V30 9 1 9 10
M  V30 10 1 10 11
M  V30 11 1 11 12
M  V30 12 1 12 3
M  V30 13 1 1 13
M  V30 14 1 1 14
M  V30 15 1 2 15
M  V30 16 1 2 16
M  V30 17 1 4 17
M  V30 18 1 4 18
M  V30 19 1 7 19
M  V30 20 1 8 20
M  V30 21 1 8 21
M  V30 22 1 9 22
M  V30 23 1 9 23
M  V30 24 1 10 24
M  V30 25 1 10 25
M  V30 26 1 11 26
M  V30 27 1 11 27
M  V30 28 1 12 28
M  V30 29 1 12 29
M  V30 END BOND
M  V30 END CTAB
M  END
>  <Dataset>  (412) 
OralDrugs

>  <Ligand_Instance>  (412) 
nan

>  <PDB_ID>  (412) 
nan

>  <Standardized_SMILES>  (412) 
NCC1(CC(=O)O)CCCCC1

>  <Name>  (412) 
Gabapentin

>  <Pocket>  (412) 
nan

>  <ATP_Site>  (412) 
nan

>  <Peripheral>  (412) 
nan

>  <Num_H_Atoms_ProtBoundConf>  (412) 
nan

>  <Num_Resolved_Atoms>  (412) 
nan

>  <Num_Not_Resolved_Atoms>  (412) 
nan

$$$$
CHEMBL659
     RDKit          3D

  0  0  0  0  0  0  0  0  0  0999 V3000
M  V30 BEGIN CTAB
M  V30 COUNTS 42 45 0 0 0
M  V30 BEGIN ATOM
M  V30 1 C 1.822714 -2.355328 5.275273 0
M  V30 2 O 1.588168 -1.403086 4.284637 0
M  V30 3 C 1.142431 -1.703113 3.004629 0
M  V30 4 C 0.896380 -3.006746 2.623025 0
M  V30 5 C 0.454371 -3.231981 1.334219 0
M  V30 6 C 0.230068 -2.263125 0.370252 0
M  V30 7 C 0.483354 -0.969890 0.773396 0
M  V30 8 C 0.932680 -0.702765 2.076309 0
M  V30 9 O 1.113745 0.664231 2.250943 0
M  V30 10 C 0.310193 1.359565 1.265340 0 CFG=1
M  V30 11 C 0.799154 2.733003 1.066171 0
M  V30 12 C 1.633844 3.008821 -0.126700 0 CFG=1
M  V30 13 O 2.691650 3.873676 0.163060 0
M  V30 14 C 2.222204 1.803432 -0.759309 0
M  V30 15 C 1.676216 0.587971 -0.651102 0
M  V30 16 C 0.414731 0.423114 0.141221 0 CFG=1
M  V30 17 C -0.788097 0.478841 -0.831886 0
M  V30 18 C -0.976790 -0.867631 -1.200731 0
M  V30 19 N -1.238690 -2.108912 -1.618549 0
M  V30 20 C -2.567050 -2.604710 -1.332325 0
M  V30 21 C -0.259869 -2.967934 -0.861349 0
M  V30 22 H 1.782773 -1.917410 6.284782 0
M  V30 23 H 1.080872 -3.182438 5.279863 0
M  V30 24 H 2.825198 -2.828988 5.169186 0
M  V30 25 H 1.055456 -3.791239 3.333455 0
M  V30 26 H 0.285155 -4.277836 1.115340 0
M  V30 27 H -0.721345 1.313429 1.673724 0
M  V30 28 H -0.058543 3.441632 1.073694 0
M  V30 29 H 1.410746 3.022361 1.969502 0
M  V30 30 H 1.047363 3.524870 -0.930956 0
M  V30 31 H 3.543389 3.589960 -0.248513 0
M  V30 32 H 3.134406 1.877092 -1.341602 0
M  V30 33 H 2.117998 -0.284175 -1.119343 0
M  V30 34 H -1.627326 1.019224 -0.338104 0
M  V30 35 H -0.499187 1.189156 -1.666245 0
M  V30 36 H 0.085941 -0.947310 -1.554274 0
M  V30 37 H -1.270650 -1.132637 -0.152481 0
M  V30 38 H -2.526993 -3.022126 -0.291757 0
M  V30 39 H -2.913655 -3.372098 -2.052726 0
M  V30 40 H -3.270913 -1.734527 -1.269437 0
M  V30 41 H -0.777081 -3.912005 -0.584042 0
M  V30 42 H 0.579882 -3.114913 -1.564880 0
M  V30 END ATOM
M  V30 BEGIN BOND
M  V30 1 1 1 2
M  V30 2 1 2 3
M  V30 3 2 3 4
M  V30 4 1 4 5
M  V30 5 2 5 6
M  V30 6 1 6 7
M  V30 7 2 7 8
M  V30 8 1 8 9
M  V30 9 1 9 10
M  V30 10 1 10 11
M  V30 11 1 11 12
M  V30 12 1 12 13
M  V30 13 1 12 14
M  V30 14 2 14 15
M  V30 15 1 15 16
M  V30 16 1 16 17 CFG=3
M  V30 17 1 17 18
M  V30 18 1 18 19
M  V30 19 1 19 20
M  V30 20 1 19 21
M  V30 21 1 8 3
M  V30 22 1 16 10
M  V30 23 1 21 6
M  V30 24 1 16 7
M  V30 25 1 1 22
M  V30 26 1 1 23
M  V30 27 1 1 24
M  V30 28 1 4 25
M  V30 29 1 5 26
M  V30 30 1 10 27 CFG=1
M  V30 31 1 11 28
M  V30 32 1 11 29
M  V30 33 1 12 30 CFG=3
M  V30 34 1 13 31
M  V30 35 1 14 32
M  V30 36 1 15 33
M  V30 37 1 17 34
M  V30 38 1 17 35
M  V30 39 1 18 36
M  V30 40 1 18 37
M  V30 41 1 20 38
M  V30 42 1 20 39
M  V30 43 1 20 40
M  V30 44 1 21 41
M  V30 45 1 21 42
M  V30 END BOND
M  V30 END CTAB
M  END
>  <Dataset>  (413) 
OralDrugs

>  <Ligand_Instance>  (413) 
nan

>  <PDB_ID>  (413) 
nan

>  <Standardized_SMILES>  (413) 
COc1ccc2c3c1O[C@H]1C[C@@H](O)C=C[C@@]31CCN(C)C2

>  <Name>  (413) 
Galantamine

>  <Pocket>  (413) 
nan

>  <ATP_Site>  (413) 
nan

>  <Peripheral>  (413) 
nan

>  <Num_H_Atoms_ProtBoundConf>  (413) 
nan

>  <Num_Resolved_Atoms>  (413) 
nan

>  <Num_Not_Resolved_Atoms>  (413) 
nan

$$$$
CHEMBL1568698
     RDKit          3D

  0  0  0  0  0  0  0  0  0  0999 V3000
M  V30 BEGIN CTAB
M  V30 COUNTS 60 63 0 0 0
M  V30 BEGIN ATOM
M  V30 1 C 1.344333 -6.971000 0.474446 0
M  V30 2 C 1.185575 -5.616116 -0.122014 0
M  V30 3 O 1.850221 -5.711142 -1.166971 0
M  V30 4 C 0.363434 -4.610574 0.606516 0 CFG=1
M  V30 5 C 1.073106 -4.446175 1.961332 0
M  V30 6 C 1.786874 -3.095167 1.767866 0
M  V30 7 C 0.655761 -2.372012 1.116032 0 CFG=1
M  V30 8 C 0.885713 -0.994751 0.645306 0 CFG=2
M  V30 9 C 1.331892 -0.163909 1.829174 0
M  V30 10 C 1.143931 1.309155 1.634660 0
M  V30 11 C -0.225746 1.653493 1.152551 0 CFG=1
M  V30 12 C -0.403882 3.128096 1.025214 0
M  V30 13 C -1.885202 3.389663 0.828061 0 CFG=2
M  V30 14 C -2.055358 4.882945 0.631400 0
M  V30 15 O -2.628117 3.000467 1.912949 0
M  V30 16 C -2.285520 2.717252 -0.458121 0
M  V30 17 C -1.965583 1.260943 -0.505425 0
M  V30 18 C -0.546159 0.915303 -0.154561 0 CFG=1
M  V30 19 C 0.398348 1.330333 -1.247937 0
M  V30 20 C -0.495120 -0.524237 0.180915 0 CFG=1
M  V30 21 C -1.063945 -1.411364 -0.866575 0
M  V30 22 C -1.085938 -2.859749 -0.460788 0
M  V30 23 C 0.303609 -3.269916 -0.028960 0 CFG=2
M  V30 24 C 1.189647 -3.155291 -1.227181 0
M  V30 25 H 0.849902 -6.994815 1.467410 0
M  V30 26 H 0.968959 -7.782494 -0.189100 0
M  V30 27 H 2.427553 -7.184864 0.705007 0
M  V30 28 H -0.672814 -4.980592 0.733927 0
M  V30 29 H 0.251317 -4.343827 2.717290 0
M  V30 30 H 1.758785 -5.259711 2.189654 0
M  V30 31 H 2.147875 -2.672960 2.705527 0
M  V30 32 H 2.644587 -3.288623 1.113401 0
M  V30 33 H -0.193049 -2.378314 1.830088 0
M  V30 34 H 1.608432 -0.941170 -0.174276 0
M  V30 35 H 2.436931 -0.358784 1.936267 0
M  V30 36 H 0.866262 -0.566025 2.746999 0
M  V30 37 H 1.233849 1.768885 2.661212 0
M  V30 38 H 1.965359 1.732931 1.037651 0
M  V30 39 H -0.941095 1.263470 1.914280 0
M  V30 40 H 0.150784 3.524433 0.159229 0
M  V30 41 H -0.012319 3.589964 1.941672 0
M  V30 42 H -2.240662 5.337102 1.628889 0
M  V30 43 H -1.136433 5.356683 0.225736 0
M  V30 44 H -2.934425 5.083967 -0.031414 0
M  V30 45 H -2.964960 2.071606 1.854924 0
M  V30 46 H -3.368361 2.828092 -0.571783 0
M  V30 47 H -1.738525 3.255522 -1.275308 0
M  V30 48 H -2.183541 0.918804 -1.544881 0
M  V30 49 H -2.686535 0.712051 0.131404 0
M  V30 50 H 1.199031 2.036056 -0.880477 0
M  V30 51 H -0.176390 1.959757 -1.985009 0
M  V30 52 H 0.880203 0.479284 -1.754950 0
M  V30 53 H -1.139065 -0.660526 1.096790 0
M  V30 54 H -0.650841 -1.213162 -1.862887 0
M  V30 55 H -2.153943 -1.122379 -0.953743 0
M  V30 56 H -1.392559 -3.454976 -1.346034 0
M  V30 57 H -1.854666 -3.018448 0.312274 0
M  V30 58 H 2.235483 -3.413773 -1.086316 0
M  V30 59 H 0.755839 -3.850257 -2.006198 0
M  V30 60 H 1.143836 -2.164120 -1.710275 0
M  V30 END ATOM
M  V30 BEGIN BOND
M  V30 1 1 1 2
M  V30 2 2 2 3
M  V30 3 1 2 4
M  V30 4 1 4 5
M  V30 5 1 5 6
M  V30 6 1 6 7
M  V30 7 1 7 8
M  V30 8 1 8 9
M  V30 9 1 9 10
M  V30 10 1 10 11
M  V30 11 1 11 12
M  V30 12 1 12 13
M  V30 13 1 13 14
M  V30 14 1 13 15 CFG=1
M  V30 15 1 13 16
M  V30 16 1 16 17
M  V30 17 1 17 18
M  V30 18 1 18 19 CFG=3
M  V30 19 1 18 20
M  V30 20 1 20 21
M  V30 21 1 21 22
M  V30 22 1 22 23
M  V30 23 1 23 24 CFG=3
M  V30 24 1 23 4
M  V30 25 1 23 7
M  V30 26 1 20 8
M  V30 27 1 18 11
M  V30 28 1 1 25
M  V30 29 1 1 26
M  V30 30 1 1 27
M  V30 31 1 4 28 CFG=1
M  V30 32 1 5 29
M  V30 33 1 5 30
M  V30 34 1 6 31
M  V30 35 1 6 32
M  V30 36 1 7 33 CFG=1
M  V30 37 1 8 34 CFG=3
M  V30 38 1 9 35
M  V30 39 1 9 36
M  V30 40 1 10 37
M  V30 41 1 10 38
M  V30 42 1 11 39 CFG=1
M  V30 43 1 12 40
M  V30 44 1 12 41
M  V30 45 1 14 42
M  V30 46 1 14 43
M  V30 47 1 14 44
M  V30 48 1 15 45
M  V30 49 1 16 46
M  V30 50 1 16 47
M  V30 51 1 17 48
M  V30 52 1 17 49
M  V30 53 1 19 50
M  V30 54 1 19 51
M  V30 55 1 19 52
M  V30 56 1 20 53 CFG=1
M  V30 57 1 21 54
M  V30 58 1 21 55
M  V30 59 1 22 56
M  V30 60 1 22 57
M  V30 61 1 24 58
M  V30 62 1 24 59
M  V30 63 1 24 60
M  V30 END BOND
M  V30 END CTAB
M  END
>  <Dataset>  (414) 
OralDrugs

>  <Ligand_Instance>  (414) 
nan

>  <PDB_ID>  (414) 
nan

>  <Standardized_SMILES>  (414) 
CC(=O)[C@H]1CC[C@H]2[C@@H]3CC[C@H]4C[C@](C)(O)CC[C@]4(C)[C@H]3CC[C@]12C

>  <Name>  (414) 
Ganaxolone

>  <Pocket>  (414) 
nan

>  <ATP_Site>  (414) 
nan

>  <Peripheral>  (414) 
nan

>  <Num_H_Atoms_ProtBoundConf>  (414) 
nan

>  <Num_Resolved_Atoms>  (414) 
nan

>  <Num_Not_Resolved_Atoms>  (414) 
nan

$$$$
CHEMBL939
     RDKit          3D

  0  0  0  0  0  0  0  0  0  0999 V3000
M  V30 BEGIN CTAB
M  V30 COUNTS 55 58 0 0 0
M  V30 BEGIN ATOM
M  V30 1 C -0.200954 0.065252 6.322085 0
M  V30 2 O -0.402239 -0.484119 5.032798 0
M  V30 3 C 0.600374 -0.336831 4.082461 0
M  V30 4 C 1.755714 0.331190 4.406218 0
M  V30 5 C 2.756758 0.481208 3.465804 0
M  V30 6 N 3.877185 1.136412 3.800697 0
M  V30 7 C 4.864304 1.290916 2.892014 0
M  V30 8 N 4.776081 0.808344 1.638454 0
M  V30 9 C 3.655039 0.141847 1.272246 0
M  V30 10 N 3.399507 -0.427323 0.000711 0
M  V30 11 C 2.763556 0.395890 -0.958395 0
M  V30 12 C 2.417678 1.691895 -0.644469 0
M  V30 13 C 1.797225 2.560998 -1.515246 0
M  V30 14 C 1.527485 2.038460 -2.780693 0
M  V30 15 F 0.918256 2.862361 -3.664793 0
M  V30 16 C 1.846133 0.749795 -3.163177 0
M  V30 17 Cl 1.452025 0.208492 -4.793259 0
M  V30 18 C 2.474030 -0.085097 -2.237985 0
M  V30 19 C 2.631105 -0.028138 2.187153 0
M  V30 20 C 1.455910 -0.697845 1.885722 0
M  V30 21 C 0.439583 -0.861483 2.808224 0
M  V30 22 O -0.735992 -1.515670 2.551495 0
M  V30 23 C -1.077194 -2.113013 1.316728 0
M  V30 24 C -2.433334 -2.754446 1.342958 0
M  V30 25 C -2.762590 -3.389061 -0.014119 0
M  V30 26 N -2.753984 -2.389233 -1.045306 0
M  V30 27 C -3.059442 -2.934096 -2.353342 0
M  V30 28 C -2.658299 -1.892532 -3.376693 0
M  V30 29 O -3.127449 -0.658901 -2.944632 0
M  V30 30 C -4.192235 -0.778204 -2.067282 0
M  V30 31 C -3.717081 -1.352519 -0.746180 0
M  V30 32 H -1.028170 -0.262663 7.005330 0
M  V30 33 H -0.265065 1.180727 6.225654 0
M  V30 34 H 0.745321 -0.251407 6.758076 0
M  V30 35 H 1.895634 0.747909 5.401618 0
M  V30 36 H 5.758171 1.826945 3.197075 0
M  V30 37 H 3.655128 -1.406424 -0.252107 0
M  V30 38 H 2.637575 2.074380 0.344251 0
M  V30 39 H 1.542177 3.559148 -1.241902 0
M  V30 40 H 2.728383 -1.096669 -2.526505 0
M  V30 41 H 1.334649 -1.106434 0.887966 0
M  V30 42 H -0.323956 -2.890034 1.066705 0
M  V30 43 H -1.043188 -1.347400 0.515853 0
M  V30 44 H -2.479092 -3.543089 2.121725 0
M  V30 45 H -3.190224 -1.968568 1.578286 0
M  V30 46 H -1.960690 -4.135024 -0.224297 0
M  V30 47 H -3.758277 -3.871275 0.061932 0
M  V30 48 H -4.120329 -3.225979 -2.480785 0
M  V30 49 H -2.465821 -3.867079 -2.551160 0
M  V30 50 H -3.031805 -2.137818 -4.390455 0
M  V30 51 H -1.529959 -1.849825 -3.403946 0
M  V30 52 H -4.627967 0.246079 -1.930743 0
M  V30 53 H -5.023047 -1.397662 -2.424515 0
M  V30 54 H -3.226413 -0.560657 -0.173935 0
M  V30 55 H -4.565106 -1.722666 -0.157069 0
M  V30 END ATOM
M  V30 BEGIN BOND
M  V30 1 1 1 2
M  V30 2 1 2 3
M  V30 3 2 3 4
M  V30 4 1 4 5
M  V30 5 2 5 6
M  V30 6 1 6 7
M  V30 7 2 7 8
M  V30 8 1 8 9
M  V30 9 1 9 10
M  V30 10 1 10 11
M  V30 11 2 11 12
M  V30 12 1 12 13
M  V30 13 2 13 14
M  V30 14 1 14 15
M  V30 15 1 14 16
M  V30 16 1 16 17
M  V30 17 2 16 18
M  V30 18 2 9 19
M  V30 19 1 19 20
M  V30 20 2 20 21
M  V30 21 1 21 22
M  V30 22 1 22 23
M  V30 23 1 23 24
M  V30 24 1 24 25
M  V30 25 1 25 26
M  V30 26 1 26 27
M  V30 27 1 27 28
M  V30 28 1 28 29
M  V30 29 1 29 30
M  V30 30 1 30 31
M  V30 31 1 21 3
M  V30 32 1 31 26
M  V30 33 1 19 5
M  V30 34 1 18 11
M  V30 35 1 1 32
M  V30 36 1 1 33
M  V30 37 1 1 34
M  V30 38 1 4 35
M  V30 39 1 7 36
M  V30 40 1 10 37
M  V30 41 1 12 38
M  V30 42 1 13 39
M  V30 43 1 18 40
M  V30 44 1 20 41
M  V30 45 1 23 42
M  V30 46 1 23 43
M  V30 47 1 24 44
M  V30 48 1 24 45
M  V30 49 1 25 46
M  V30 50 1 25 47
M  V30 51 1 27 48
M  V30 52 1 27 49
M  V30 53 1 28 50
M  V30 54 1 28 51
M  V30 55 1 30 52
M  V30 56 1 30 53
M  V30 57 1 31 54
M  V30 58 1 31 55
M  V30 END BOND
M  V30 END CTAB
M  END
>  <Dataset>  (415) 
OralDrugs

>  <Ligand_Instance>  (415) 
nan

>  <PDB_ID>  (415) 
nan

>  <Standardized_SMILES>  (415) 
COc1cc2ncnc(Nc3ccc(F)c(Cl)c3)c2cc1OCCCN1CCOCC1

>  <Name>  (415) 
Gefitinib

>  <Pocket>  (415) 
nan

>  <ATP_Site>  (415) 
nan

>  <Peripheral>  (415) 
nan

>  <Num_H_Atoms_ProtBoundConf>  (415) 
nan

>  <Num_Resolved_Atoms>  (415) 
nan

>  <Num_Not_Resolved_Atoms>  (415) 
nan

$$$$
CHEMBL457
     RDKit          3D

  0  0  0  0  0  0  0  0  0  0999 V3000
M  V30 BEGIN CTAB
M  V30 COUNTS 40 40 0 0 0
M  V30 BEGIN ATOM
M  V30 1 C -3.081270 -2.250505 2.583501 0
M  V30 2 C -1.901848 -2.929357 1.936504 0
M  V30 3 C -1.728492 -4.292083 1.816978 0
M  V30 4 C -0.592578 -4.768472 1.197385 0
M  V30 5 C 0.367349 -3.876550 0.698627 0
M  V30 6 C 1.503066 -4.618327 0.074056 0
M  V30 7 C 0.198931 -2.487685 0.815777 0
M  V30 8 O 1.268453 -1.885215 0.253357 0
M  V30 9 C 1.578631 -0.528471 0.103985 0
M  V30 10 C 0.608914 0.258488 -0.723017 0
M  V30 11 C 0.932604 1.685561 -0.926272 0
M  V30 12 C 1.055709 2.592414 0.229331 0
M  V30 13 C 1.364198 3.986119 -0.387153 0
M  V30 14 C 2.273284 2.335256 1.122826 0
M  V30 15 C -0.116062 2.735607 1.093189 0
M  V30 16 O -0.686395 3.862718 1.274014 0
M  V30 17 O -0.703334 1.684390 1.780745 0
M  V30 18 C -0.938340 -2.083215 1.435131 0
M  V30 19 H -3.644531 -2.941129 3.212737 0
M  V30 20 H -3.674639 -1.820221 1.743296 0
M  V30 21 H -2.685183 -1.370177 3.148789 0
M  V30 22 H -2.515019 -4.911803 2.227610 0
M  V30 23 H -0.546802 -5.842690 1.152171 0
M  V30 24 H 1.952711 -5.288643 0.840117 0
M  V30 25 H 2.232401 -3.870211 -0.318398 0
M  V30 26 H 1.065506 -5.228954 -0.742385 0
M  V30 27 H 2.557482 -0.489045 -0.429901 0
M  V30 28 H 1.661721 -0.101850 1.149405 0
M  V30 29 H -0.462604 0.087626 -0.468786 0
M  V30 30 H 0.680185 -0.214839 -1.761738 0
M  V30 31 H 0.266640 2.155390 -1.700240 0
M  V30 32 H 1.943876 1.702586 -1.450682 0
M  V30 33 H 0.926700 4.067548 -1.399869 0
M  V30 34 H 0.882554 4.758441 0.242871 0
M  V30 35 H 2.435686 4.174072 -0.449529 0
M  V30 36 H 3.042887 1.721193 0.638040 0
M  V30 37 H 1.970748 1.990546 2.132118 0
M  V30 38 H 2.820802 3.309629 1.344170 0
M  V30 39 H -1.089258 1.870033 2.707561 0
M  V30 40 H -1.021205 -1.026618 1.509507 0
M  V30 END ATOM
M  V30 BEGIN BOND
M  V30 1 1 1 2
M  V30 2 2 2 3
M  V30 3 1 3 4
M  V30 4 2 4 5
M  V30 5 1 5 6
M  V30 6 1 5 7
M  V30 7 1 7 8
M  V30 8 1 8 9
M  V30 9 1 9 10
M  V30 10 1 10 11
M  V30 11 1 11 12
M  V30 12 1 12 13
M  V30 13 1 12 14
M  V30 14 1 12 15
M  V30 15 2 15 16
M  V30 16 1 15 17
M  V30 17 2 7 18
M  V30 18 1 18 2
M  V30 19 1 1 19
M  V30 20 1 1 20
M  V30 21 1 1 21
M  V30 22 1 3 22
M  V30 23 1 4 23
M  V30 24 1 6 24
M  V30 25 1 6 25
M  V30 26 1 6 26
M  V30 27 1 9 27
M  V30 28 1 9 28
M  V30 29 1 10 29
M  V30 30 1 10 30
M  V30 31 1 11 31
M  V30 32 1 11 32
M  V30 33 1 13 33
M  V30 34 1 13 34
M  V30 35 1 13 35
M  V30 36 1 14 36
M  V30 37 1 14 37
M  V30 38 1 14 38
M  V30 39 1 17 39
M  V30 40 1 18 40
M  V30 END BOND
M  V30 END CTAB
M  END
>  <Dataset>  (416) 
OralDrugs

>  <Ligand_Instance>  (416) 
nan

>  <PDB_ID>  (416) 
nan

>  <Standardized_SMILES>  (416) 
Cc1ccc(C)c(OCCCC(C)(C)C(=O)O)c1

>  <Name>  (416) 
Gemfibrozil

>  <Pocket>  (416) 
nan

>  <ATP_Site>  (416) 
nan

>  <Peripheral>  (416) 
nan

>  <Num_H_Atoms_ProtBoundConf>  (416) 
nan

>  <Num_Resolved_Atoms>  (416) 
nan

>  <Num_Not_Resolved_Atoms>  (416) 
nan

$$$$
CHEMBL430
     RDKit          3D

  0  0  0  0  0  0  0  0  0  0999 V3000
M  V30 BEGIN CTAB
M  V30 COUNTS 48 51 0 0 0
M  V30 BEGIN ATOM
M  V30 1 C -1.313676 -5.085944 1.770521 0
M  V30 2 O -0.792915 -5.200146 0.455411 0
M  V30 3 N -1.514857 -4.778681 -0.652071 0
M  V30 4 C -1.716209 -3.536086 -0.864162 0
M  V30 5 C -1.185287 -2.504533 0.065694 0
M  V30 6 N -1.082056 -1.356511 -0.840511 0
M  V30 7 C -0.291856 -0.204079 -0.553853 0
M  V30 8 N 0.422297 -0.089597 0.582050 0
M  V30 9 C 1.186316 0.971543 0.909434 0
M  V30 10 C 1.287594 2.055606 0.060504 0
M  V30 11 C 0.576553 1.995388 -1.121312 0
M  V30 12 C -0.189964 0.881187 -1.402850 0
M  V30 13 F -0.866254 0.865908 -2.566599 0
M  V30 14 C 2.068372 3.147225 0.388239 0
M  V30 15 O 2.155521 4.139702 -0.398688 0
M  V30 16 C 2.730476 3.085263 1.600352 0
M  V30 17 C 3.576419 4.214466 2.006046 0
M  V30 18 O 4.223630 4.266126 3.084742 0
M  V30 19 O 3.711040 5.326437 1.188789 0
M  V30 20 C 2.630318 2.001221 2.451221 0
M  V30 21 N 1.853366 0.955181 2.087037 0
M  V30 22 C 1.781464 -0.167971 3.024115 0
M  V30 23 C 1.876698 0.127640 4.505745 0
M  V30 24 C 2.971854 -0.582625 3.777550 0
M  V30 25 C -1.854587 -1.477820 -2.071854 0
M  V30 26 C -2.451683 -2.872022 -1.972193 0
M  V30 27 C -3.913300 -2.812604 -1.553855 0
M  V30 28 N -3.995215 -2.045176 -0.325008 0
M  V30 29 H -2.377619 -4.773257 1.748287 0
M  V30 30 H -0.719863 -4.353841 2.362343 0
M  V30 31 H -1.245616 -6.045582 2.342095 0
M  V30 32 H -1.838340 -2.318855 0.927015 0
M  V30 33 H -0.144322 -2.748982 0.406812 0
M  V30 34 H 0.634329 2.830259 -1.810319 0
M  V30 35 H 3.899008 6.274506 1.526024 0
M  V30 36 H 3.183237 2.033892 3.383591 0
M  V30 37 H 1.062449 -0.982774 2.795429 0
M  V30 38 H 2.016803 1.180897 4.824556 0
M  V30 39 H 1.262640 -0.439811 5.231649 0
M  V30 40 H 3.103284 -1.646268 4.055085 0
M  V30 41 H 3.909923 0.007526 3.602446 0
M  V30 42 H -1.238948 -1.359827 -2.983695 0
M  V30 43 H -2.700952 -0.742011 -2.008017 0
M  V30 44 H -2.326058 -3.399812 -2.935573 0
M  V30 45 H -4.199120 -3.872305 -1.327757 0
M  V30 46 H -4.564064 -2.367802 -2.317563 0
M  V30 47 H -4.540918 -1.165897 -0.453929 0
M  V30 48 H -4.315884 -2.596365 0.491755 0
M  V30 END ATOM
M  V30 BEGIN BOND
M  V30 1 1 1 2
M  V30 2 1 2 3
M  V30 3 2 3 4
M  V30 4 1 4 5
M  V30 5 1 5 6
M  V30 6 1 6 7
M  V30 7 2 7 8
M  V30 8 1 8 9
M  V30 9 2 9 10
M  V30 10 1 10 11
M  V30 11 2 11 12
M  V30 12 1 12 13
M  V30 13 1 10 14
M  V30 14 2 14 15
M  V30 15 1 14 16
M  V30 16 1 16 17
M  V30 17 2 17 18
M  V30 18 1 17 19
M  V30 19 2 16 20
M  V30 20 1 20 21
M  V30 21 1 21 22
M  V30 22 1 22 23
M  V30 23 1 23 24
M  V30 24 1 6 25
M  V30 25 1 25 26
M  V30 26 1 26 27
M  V30 27 1 27 28
M  V30 28 1 26 4
M  V30 29 1 12 7
M  V30 30 1 24 22
M  V30 31 1 21 9
M  V30 32 1 1 29
M  V30 33 1 1 30
M  V30 34 1 1 31
M  V30 35 1 5 32
M  V30 36 1 5 33
M  V30 37 1 11 34
M  V30 38 1 19 35
M  V30 39 1 20 36
M  V30 40 1 22 37
M  V30 41 1 23 38
M  V30 42 1 23 39
M  V30 43 1 24 40
M  V30 44 1 24 41
M  V30 45 1 25 42
M  V30 46 1 25 43
M  V30 47 1 26 44
M  V30 48 1 27 45
M  V30 49 1 27 46
M  V30 50 1 28 47
M  V30 51 1 28 48
M  V30 END BOND
M  V30 END CTAB
M  END
>  <Dataset>  (417) 
OralDrugs

>  <Ligand_Instance>  (417) 
nan

>  <PDB_ID>  (417) 
nan

>  <Standardized_SMILES>  (417) 
CO/N=C1\CN(c2nc3c(cc2F)c(=O)c(C(=O)O)cn3C2CC2)CC1CN

>  <Name>  (417) 
Gemifloxacin

>  <Pocket>  (417) 
nan

>  <ATP_Site>  (417) 
nan

>  <Peripheral>  (417) 
nan

>  <Num_H_Atoms_ProtBoundConf>  (417) 
nan

>  <Num_Resolved_Atoms>  (417) 
nan

>  <Num_Not_Resolved_Atoms>  (417) 
nan

$$$$
CHEMBL284092
     RDKit          3D

  0  0  0  0  0  0  0  0  0  0999 V3000
M  V30 BEGIN CTAB
M  V30 COUNTS 55 57 0 0 0
M  V30 BEGIN ATOM
M  V30 1 C 0.839647 -4.164482 2.852720 0
M  V30 2 C 0.140413 -3.362968 1.756946 0
M  V30 3 C -1.237741 -3.952255 1.536198 0
M  V30 4 C -0.037768 -1.972560 2.333176 0
M  V30 5 C 1.330034 -1.459930 2.620660 0
M  V30 6 O 1.858153 -1.085789 3.727657 0
M  V30 7 N 2.244509 -1.347567 1.501782 0
M  V30 8 C 3.325438 -0.481856 1.344810 0
M  V30 9 C 3.265832 0.851960 0.747236 0
M  V30 10 C 2.825789 1.079770 -0.625482 0
M  V30 11 C 1.446996 0.852737 -1.088353 0
M  V30 12 N 0.449836 1.675290 -0.542990 0
M  V30 13 C 0.040782 1.629450 0.784477 0
M  V30 14 C -1.458362 1.584798 0.993431 0
M  V30 15 N -2.095629 1.443899 -0.295256 0
M  V30 16 C -2.944923 0.333081 -0.542175 0
M  V30 17 N -3.042028 -0.565078 0.446309 0
M  V30 18 C -3.835056 -1.664318 0.314104 0
M  V30 19 C -4.542834 -1.830622 -0.875728 0
M  V30 20 C -4.435696 -0.897550 -1.890077 0
M  V30 21 N -3.630749 0.160836 -1.680805 0
M  V30 22 C -1.768327 2.512467 -1.214962 0
M  V30 23 C -0.274453 2.497765 -1.445317 0
M  V30 24 C 1.980001 -2.316894 0.457306 0
M  V30 25 O 2.651335 -2.407996 -0.617201 0
M  V30 26 C 0.912922 -3.330568 0.474716 0
M  V30 27 H 0.704104 -5.243528 2.758908 0
M  V30 28 H 1.887403 -3.818924 2.935732 0
M  V30 29 H 0.334007 -3.866827 3.817013 0
M  V30 30 H -1.938728 -3.455745 2.238912 0
M  V30 31 H -1.549292 -3.664491 0.507581 0
M  V30 32 H -1.224736 -5.065138 1.662551 0
M  V30 33 H -0.514139 -1.363209 1.517012 0
M  V30 34 H -0.663590 -2.019899 3.228952 0
M  V30 35 H 3.792099 -0.357919 2.394996 0
M  V30 36 H 4.157103 -1.052701 0.779525 0
M  V30 37 H 2.796746 1.540130 1.503741 0
M  V30 38 H 4.357081 1.240304 0.780072 0
M  V30 39 H 3.584117 0.551402 -1.305183 0
M  V30 40 H 3.061382 2.173221 -0.891528 0
M  V30 41 H 1.115277 -0.209003 -1.166417 0
M  V30 42 H 1.476090 1.142385 -2.208550 0
M  V30 43 H 0.383193 2.600728 1.269443 0
M  V30 44 H 0.561503 0.862921 1.355735 0
M  V30 45 H -1.759428 0.778342 1.688614 0
M  V30 46 H -1.770308 2.529088 1.471813 0
M  V30 47 H -3.871916 -2.352781 1.145574 0
M  V30 48 H -5.152561 -2.718968 -0.920551 0
M  V30 49 H -4.989567 -1.052015 -2.788927 0
M  V30 50 H -2.327187 2.370681 -2.163496 0
M  V30 51 H -2.113377 3.497648 -0.780321 0
M  V30 52 H -0.119476 2.230125 -2.514810 0
M  V30 53 H 0.067600 3.567255 -1.310618 0
M  V30 54 H 1.448168 -4.324918 0.413536 0
M  V30 55 H 0.205394 -3.240723 -0.385242 0
M  V30 END ATOM
M  V30 BEGIN BOND
M  V30 1 1 1 2
M  V30 2 1 2 3
M  V30 3 1 2 4
M  V30 4 1 4 5
M  V30 5 2 5 6
M  V30 6 1 5 7
M  V30 7 1 7 8
M  V30 8 1 8 9
M  V30 9 1 9 10
M  V30 10 1 10 11
M  V30 11 1 11 12
M  V30 12 1 12 13
M  V30 13 1 13 14
M  V30 14 1 14 15
M  V30 15 1 15 16
M  V30 16 2 16 17
M  V30 17 1 17 18
M  V30 18 2 18 19
M  V30 19 1 19 20
M  V30 20 2 20 21
M  V30 21 1 15 22
M  V30 22 1 22 23
M  V30 23 1 7 24
M  V30 24 2 24 25
M  V30 25 1 24 26
M  V30 26 1 26 2
M  V30 27 1 23 12
M  V30 28 1 21 16
M  V30 29 1 1 27
M  V30 30 1 1 28
M  V30 31 1 1 29
M  V30 32 1 3 30
M  V30 33 1 3 31
M  V30 34 1 3 32
M  V30 35 1 4 33
M  V30 36 1 4 34
M  V30 37 1 8 35
M  V30 38 1 8 36
M  V30 39 1 9 37
M  V30 40 1 9 38
M  V30 41 1 10 39
M  V30 42 1 10 40
M  V30 43 1 11 41
M  V30 44 1 11 42
M  V30 45 1 13 43
M  V30 46 1 13 44
M  V30 47 1 14 45
M  V30 48 1 14 46
M  V30 49 1 18 47
M  V30 50 1 19 48
M  V30 51 1 20 49
M  V30 52 1 22 50
M  V30 53 1 22 51
M  V30 54 1 23 52
M  V30 55 1 23 53
M  V30 56 1 26 54
M  V30 57 1 26 55
M  V30 END BOND
M  V30 END CTAB
M  END
>  <Dataset>  (418) 
OralDrugs

>  <Ligand_Instance>  (418) 
nan

>  <PDB_ID>  (418) 
nan

>  <Standardized_SMILES>  (418) 
CC1(C)CC(=O)N(CCCCN2CCN(c3ncccn3)CC2)C(=O)C1

>  <Name>  (418) 
Gepirone

>  <Pocket>  (418) 
nan

>  <ATP_Site>  (418) 
nan

>  <Peripheral>  (418) 
nan

>  <Num_H_Atoms_ProtBoundConf>  (418) 
nan

>  <Num_Resolved_Atoms>  (418) 
nan

>  <Num_Not_Resolved_Atoms>  (418) 
nan

$$$$
CHEMBL3301622
     RDKit          3D

  0  0  0  0  0  0  0  0  0  0999 V3000
M  V30 BEGIN CTAB
M  V30 COUNTS 84 88 0 0 0
M  V30 BEGIN ATOM
M  V30 1 C 4.699334 -1.693786 3.973625 0
M  V30 2 C 3.469060 -2.233695 3.283282 0
M  V30 3 C 3.446705 -1.906214 1.844087 0
M  V30 4 N 3.733985 -2.838061 0.926498 0
M  V30 5 C 3.714803 -2.546519 -0.382316 0
M  V30 6 C 4.050750 -3.662643 -1.256363 0
M  V30 7 N 4.380500 -4.964971 -0.729053 0
M  V30 8 O 4.177791 -3.959727 -2.447768 0
M  V30 9 C 3.409384 -1.307114 -0.895714 0
M  V30 10 N 3.422197 -1.206813 -2.290668 0
M  V30 11 C 2.007374 -1.130664 -2.537653 0
M  V30 12 C 1.330892 0.048063 -2.219624 0
M  V30 13 C -0.045623 0.261267 -2.394528 0
M  V30 14 C -0.775791 -0.808559 -2.932212 0
M  V30 15 N -2.164022 -0.517740 -3.032211 0
M  V30 16 C -2.768351 0.810538 -2.935384 0
M  V30 17 C -3.355522 0.975251 -1.523484 0
M  V30 18 C -3.531475 -0.432766 -1.005330 0
M  V30 19 N -4.094824 -0.430267 0.271031 0
M  V30 20 C -3.380377 0.211987 1.316743 0
M  V30 21 C -4.438807 0.818354 2.252203 0
M  V30 22 N -5.438922 -0.160548 2.527300 0
M  V30 23 C -6.775518 0.222278 2.141598 0
M  V30 24 C -5.089261 -1.496624 2.145646 0
M  V30 25 C -4.739699 -1.652336 0.680532 0
M  V30 26 C -4.306662 -1.173835 -2.072278 0
M  V30 27 C -3.291436 -1.431076 -3.201970 0
M  V30 28 C -0.123394 -1.955315 -3.242639 0
M  V30 29 O -0.868133 -2.972352 -3.763594 0
M  V30 30 C -0.298228 -4.213915 -4.124144 0
M  V30 31 C 1.229251 -2.137068 -3.060339 0
M  V30 32 N 3.120655 -0.370076 0.035990 0
M  V30 33 C 3.131393 -0.633504 1.359633 0
M  V30 34 N 2.815888 0.375031 2.279636 0
M  V30 35 C 2.474547 1.709050 1.816254 0
M  V30 36 C 3.684183 2.219002 1.042763 0
M  V30 37 C 3.787358 3.721472 1.194846 0
M  V30 38 O 4.019580 4.080629 2.500423 0
M  V30 39 C 3.387824 3.302396 3.447656 0
M  V30 40 C 2.124052 2.639732 2.934398 0
M  V30 41 H 4.415252 -0.865507 4.670787 0
M  V30 42 H 5.437760 -1.338435 3.219209 0
M  V30 43 H 5.168576 -2.471096 4.620437 0
M  V30 44 H 2.581556 -1.893957 3.832488 0
M  V30 45 H 3.486347 -3.337888 3.386595 0
M  V30 46 H 5.218928 -5.259175 -0.194545 0
M  V30 47 H 5.323085 -4.777156 -0.293210 0
M  V30 48 H 4.179595 -1.187445 -3.010691 0
M  V30 49 H 1.975204 0.843471 -1.803528 0
M  V30 50 H -0.336774 1.249163 -2.075485 0
M  V30 51 H -2.029954 1.621828 -3.058023 0
M  V30 52 H -3.540646 0.987644 -3.717902 0
M  V30 53 H -2.706148 1.595074 -0.905054 0
M  V30 54 H -4.349458 1.504374 -1.564704 0
M  V30 55 H -2.493469 -0.869533 -0.989961 0
M  V30 56 H -2.838103 -0.572469 1.925908 0
M  V30 57 H -2.673782 0.959696 0.973862 0
M  V30 58 H -4.897430 1.650573 1.682540 0
M  V30 59 H -3.957047 1.245926 3.154750 0
M  V30 60 H -7.257391 -0.554822 1.520444 0
M  V30 61 H -7.395742 0.415466 3.042267 0
M  V30 62 H -6.738662 1.169326 1.577739 0
M  V30 63 H -5.943122 -2.144617 2.442809 0
M  V30 64 H -4.218974 -1.808338 2.750966 0
M  V30 65 H -5.673067 -1.820382 0.118249 0
M  V30 66 H -4.052553 -2.529852 0.621177 0
M  V30 67 H -5.094198 -0.468160 -2.408549 0
M  V30 68 H -4.799434 -2.079985 -1.727545 0
M  V30 69 H -3.786536 -1.147032 -4.148489 0
M  V30 70 H -3.038056 -2.477949 -3.281853 0
M  V30 71 H -1.017369 -4.858352 -4.676719 0
M  V30 72 H -0.002659 -4.697903 -3.153575 0
M  V30 73 H 0.625404 -4.028520 -4.700892 0
M  V30 74 H 1.729473 -3.044553 -3.308236 0
M  V30 75 H 2.807701 0.230831 3.288768 0
M  V30 76 H 1.654185 1.641526 1.053936 0
M  V30 77 H 4.597844 1.717687 1.427178 0
M  V30 78 H 3.586252 2.000725 -0.039530 0
M  V30 79 H 4.613262 4.045908 0.529681 0
M  V30 80 H 2.818663 4.149480 0.815292 0
M  V30 81 H 3.036434 4.001841 4.263084 0
M  V30 82 H 4.036953 2.555677 3.930421 0
M  V30 83 H 1.446414 3.425365 2.531049 0
M  V30 84 H 1.636495 2.149516 3.802312 0
M  V30 END ATOM
M  V30 BEGIN BOND
M  V30 1 1 1 2
M  V30 2 1 2 3
M  V30 3 2 3 4
M  V30 4 1 4 5
M  V30 5 1 5 6
M  V30 6 1 6 7
M  V30 7 2 6 8
M  V30 8 2 5 9
M  V30 9 1 9 10
M  V30 10 1 10 11
M  V30 11 2 11 12
M  V30 12 1 12 13
M  V30 13 2 13 14
M  V30 14 1 14 15
M  V30 15 1 15 16
M  V30 16 1 16 17
M  V30 17 1 17 18
M  V30 18 1 18 19
M  V30 19 1 19 20
M  V30 20 1 20 21
M  V30 21 1 21 22
M  V30 22 1 22 23
M  V30 23 1 22 24
M  V30 24 1 24 25
M  V30 25 1 18 26
M  V30 26 1 26 27
M  V30 27 1 14 28
M  V30 28 1 28 29
M  V30 29 1 29 30
M  V30 30 2 28 31
M  V30 31 1 9 32
M  V30 32 2 32 33
M  V30 33 1 33 34
M  V30 34 1 34 35
M  V30 35 1 35 36
M  V30 36 1 36 37
M  V30 37 1 37 38
M  V30 38 1 38 39
M  V30 39 1 39 40
M  V30 40 1 33 3
M  V30 41 1 40 35
M  V30 42 1 31 11
M  V30 43 1 27 15
M  V30 44 1 25 19
M  V30 45 1 1 41
M  V30 46 1 1 42
M  V30 47 1 1 43
M  V30 48 1 2 44
M  V30 49 1 2 45
M  V30 50 1 7 46
M  V30 51 1 7 47
M  V30 52 1 10 48
M  V30 53 1 12 49
M  V30 54 1 13 50
M  V30 55 1 16 51
M  V30 56 1 16 52
M  V30 57 1 17 53
M  V30 58 1 17 54
M  V30 59 1 18 55
M  V30 60 1 20 56
M  V30 61 1 20 57
M  V30 62 1 21 58
M  V30 63 1 21 59
M  V30 64 1 23 60
M  V30 65 1 23 61
M  V30 66 1 23 62
M  V30 67 1 24 63
M  V30 68 1 24 64
M  V30 69 1 25 65
M  V30 70 1 25 66
M  V30 71 1 26 67
M  V30 72 1 26 68
M  V30 73 1 27 69
M  V30 74 1 27 70
M  V30 75 1 30 71
M  V30 76 1 30 72
M  V30 77 1 30 73
M  V30 78 1 31 74
M  V30 79 1 34 75
M  V30 80 1 35 76
M  V30 81 1 36 77
M  V30 82 1 36 78
M  V30 83 1 37 79
M  V30 84 1 37 80
M  V30 85 1 39 81
M  V30 86 1 39 82
M  V30 87 1 40 83
M  V30 88 1 40 84
M  V30 END BOND
M  V30 END CTAB
M  END
>  <Dataset>  (419) 
OralDrugs

>  <Ligand_Instance>  (419) 
nan

>  <PDB_ID>  (419) 
nan

>  <Standardized_SMILES>  (419) 
CCc1nc(C(N)=O)c(Nc2ccc(N3CCC(N4CCN(C)CC4)CC3)c(OC)c2)nc1NC1CCOCC1

>  <Name>  (419) 
Gilteritinib

>  <Pocket>  (419) 
nan

>  <ATP_Site>  (419) 
nan

>  <Peripheral>  (419) 
nan

>  <Num_H_Atoms_ProtBoundConf>  (419) 
nan

>  <Num_Resolved_Atoms>  (419) 
nan

>  <Num_Not_Resolved_Atoms>  (419) 
nan

$$$$
CHEMBL2043437
     RDKit          3D

  0  0  0  0  0  0  0  0  0  0999 V3000
M  V30 BEGIN CTAB
M  V30 COUNTS 50 53 0 0 0
M  V30 BEGIN ATOM
M  V30 1 C -2.369746 -1.160314 2.849267 0
M  V30 2 N -1.358785 -1.212701 1.856198 0
M  V30 3 C -1.661101 -0.475129 0.657253 0
M  V30 4 C -0.610261 -0.668575 -0.383606 0
M  V30 5 C 0.707783 -1.016679 0.294076 0 CFG=1
M  V30 6 N 1.035651 0.130551 1.121366 0
M  V30 7 C 2.157840 0.890282 0.771651 0
M  V30 8 O 2.885086 0.615178 -0.225920 0
M  V30 9 N 2.447805 2.010094 1.608979 0
M  V30 10 C 3.488673 2.979900 1.550941 0
M  V30 11 C 3.109391 4.081971 0.775679 0
M  V30 12 C 3.981395 5.142628 0.591274 0
M  V30 13 C 5.230342 5.115735 1.173120 0
M  V30 14 C 6.124131 6.211822 0.979211 0
M  V30 15 N 6.869533 7.108994 0.823291 0
M  V30 16 C 5.596434 4.018471 1.939760 0
M  V30 17 C 4.735387 2.952057 2.132292 0
M  V30 18 C 0.610422 -2.280941 1.103852 0
M  V30 19 C -0.818065 -2.520260 1.610794 0 CFG=2
M  V30 20 C -1.569191 -3.302377 0.621119 0
M  V30 21 N -2.914846 -3.273540 0.768136 0
M  V30 22 C -3.495408 -4.033131 -0.204997 0
M  V30 23 C -4.807141 -4.347539 -0.521578 0
M  V30 24 C -5.017495 -5.170598 -1.609735 0
M  V30 25 C -3.981738 -5.672640 -2.367156 0
M  V30 26 C -2.661505 -5.367449 -2.063634 0
M  V30 27 C -2.485978 -4.542031 -0.969507 0
M  V30 28 N -1.329646 -4.087490 -0.452285 0
M  V30 29 H -1.863515 -1.264252 3.849697 0
M  V30 30 H -3.155480 -1.917334 2.760433 0
M  V30 31 H -2.780789 -0.127574 2.857498 0
M  V30 32 H -1.673620 0.594728 0.951745 0
M  V30 33 H -2.678258 -0.728200 0.312412 0
M  V30 34 H -0.450731 0.290465 -0.916921 0
M  V30 35 H -0.882496 -1.414516 -1.155675 0
M  V30 36 H 1.461409 -1.089389 -0.526570 0
M  V30 37 H 0.430702 0.354263 1.946030 0
M  V30 38 H 1.840433 2.244474 2.446748 0
M  V30 39 H 2.151065 4.206583 0.272342 0
M  V30 40 H 3.701347 6.017043 -0.014352 0
M  V30 41 H 6.562885 3.953532 2.414145 0
M  V30 42 H 4.919066 2.064271 2.701473 0
M  V30 43 H 0.945572 -3.153914 0.545915 0
M  V30 44 H 1.291338 -2.145467 1.990385 0
M  V30 45 H -0.773407 -3.057538 2.573165 0
M  V30 46 H -5.585381 -3.938334 0.090465 0
M  V30 47 H -6.065937 -5.380551 -1.807241 0
M  V30 48 H -4.229793 -6.312206 -3.205909 0
M  V30 49 H -1.839968 -5.748428 -2.641264 0
M  V30 50 H -0.321887 -4.215382 -0.705095 0
M  V30 END ATOM
M  V30 BEGIN BOND
M  V30 1 1 1 2
M  V30 2 1 2 3
M  V30 3 1 3 4
M  V30 4 1 4 5
M  V30 5 1 5 6
M  V30 6 1 6 7
M  V30 7 2 7 8
M  V30 8 1 7 9
M  V30 9 1 9 10
M  V30 10 2 10 11
M  V30 11 1 11 12
M  V30 12 2 12 13
M  V30 13 1 13 14
M  V30 14 3 14 15
M  V30 15 1 13 16
M  V30 16 2 16 17
M  V30 17 1 5 18
M  V30 18 1 18 19
M  V30 19 1 19 20
M  V30 20 2 20 21
M  V30 21 1 21 22
M  V30 22 2 22 23
M  V30 23 1 23 24
M  V30 24 2 24 25
M  V30 25 1 25 26
M  V30 26 2 26 27
M  V30 27 1 27 28
M  V30 28 1 19 2
M  V30 29 1 28 20
M  V30 30 1 17 10
M  V30 31 1 27 22
M  V30 32 1 1 29
M  V30 33 1 1 30
M  V30 34 1 1 31
M  V30 35 1 3 32
M  V30 36 1 3 33
M  V30 37 1 4 34
M  V30 38 1 4 35
M  V30 39 1 5 36 CFG=3
M  V30 40 1 6 37
M  V30 41 1 9 38
M  V30 42 1 11 39
M  V30 43 1 12 40
M  V30 44 1 16 41
M  V30 45 1 17 42
M  V30 46 1 18 43
M  V30 47 1 18 44
M  V30 48 1 19 45 CFG=1
M  V30 49 1 23 46
M  V30 50 1 24 47
M  V30 51 1 25 48
M  V30 52 1 26 49
M  V30 53 1 28 50
M  V30 END BOND
M  V30 END CTAB
M  END
>  <Dataset>  (420) 
OralDrugs

>  <Ligand_Instance>  (420) 
nan

>  <PDB_ID>  (420) 
nan

>  <Standardized_SMILES>  (420) 
CN1CC[C@@H](NC(=O)Nc2ccc(C#N)cc2)C[C@@H]1c1nc2ccccc2[nH]1

>  <Name>  (420) 
Glasdegib

>  <Pocket>  (420) 
nan

>  <ATP_Site>  (420) 
nan

>  <Peripheral>  (420) 
nan

>  <Num_H_Atoms_ProtBoundConf>  (420) 
nan

>  <Num_Resolved_Atoms>  (420) 
nan

>  <Num_Not_Resolved_Atoms>  (420) 
nan

$$$$
CHEMBL3545363
     RDKit          3D

  0  0  0  0  0  0  0  0  0  0999 V3000
M  V30 BEGIN CTAB
M  V30 COUNTS 104 110 0 0 0
M  V30 BEGIN ATOM
M  V30 1 C -2.234228 2.274576 1.588794 0
M  V30 2 C -1.420956 3.116999 0.652571 0
M  V30 3 C -0.535310 4.103236 1.387428 0
M  V30 4 C -2.394428 3.980199 -0.133618 0
M  V30 5 C -0.633547 2.323013 -0.362585 0 CFG=2
M  V30 6 N -1.555247 1.576484 -1.140656 0
M  V30 7 C -1.673007 1.289027 -2.528241 0
M  V30 8 O -0.642438 1.958663 -2.696644 0
M  V30 9 O -2.406853 0.640659 -3.493243 0
M  V30 10 C -1.865097 0.744101 -4.836244 0 CFG=2
M  V30 11 C -2.478332 -0.271262 -5.718160 0
M  V30 12 C -1.383193 -1.296685 -5.983718 0
M  V30 13 C -0.109713 -0.492410 -5.893814 0
M  V30 14 C -0.401412 0.526543 -4.839429 0 CFG=1
M  V30 15 O 0.302113 1.708656 -5.034445 0
M  V30 16 C 1.617282 1.612776 -5.324673 0
M  V30 17 C 2.496466 0.963441 -4.320401 0
M  V30 18 C 3.297670 -0.101645 -4.314648 0
M  V30 19 C 4.158269 -0.704047 -3.270384 0
M  V30 20 F 4.403271 0.124094 -2.195921 0
M  V30 21 F 5.419125 -0.841368 -3.888623 0
M  V30 22 C 3.676550 -2.018214 -2.792415 0
M  V30 23 N 3.449066 -2.846008 -3.809337 0
M  V30 24 C 3.008105 -4.107496 -3.693809 0
M  V30 25 C 2.759586 -4.976772 -4.756979 0
M  V30 26 C 2.299983 -6.261252 -4.562976 0
M  V30 27 C 2.077915 -6.701687 -3.285102 0
M  V30 28 C 2.311491 -5.874203 -2.228908 0
M  V30 29 C 2.776300 -4.571213 -2.385989 0
M  V30 30 N 3.009544 -3.726735 -1.358065 0
M  V30 31 C 3.450880 -2.464580 -1.508296 0
M  V30 32 O 3.555859 -1.934009 -0.198585 0
M  V30 33 C 2.348671 -1.619399 0.516673 0 CFG=2
M  V30 34 C 1.216917 -1.862325 -0.417853 0
M  V30 35 C 0.238500 -0.718887 -0.131294 0 CFG=1
M  V30 36 C -0.766538 -1.221529 0.837350 0
M  V30 37 O -1.548530 -2.003374 0.191279 0
M  V30 38 N -0.897964 -0.938575 2.223547 0
M  V30 39 C -1.967997 -1.536991 2.981294 0 CFG=2
M  V30 40 C -1.877676 -1.229016 4.428073 0
M  V30 41 O -2.597044 -1.616069 5.378495 0
M  V30 42 N -0.893987 -0.385507 5.014900 0
M  V30 43 S -0.599300 0.099386 6.614100 0
M  V30 44 O 0.818508 -0.303436 6.997541 0
M  V30 45 O -0.632008 1.612393 6.683894 0
M  V30 46 C -1.663972 -0.613136 7.827404 0
M  V30 47 C -1.651723 -2.113519 7.981227 0
M  V30 48 C -2.853151 0.091546 8.350991 0
M  V30 49 C -1.571242 0.133434 9.180444 0
M  V30 50 C -2.710598 -2.712197 2.580429 0
M  V30 51 C -3.298551 -1.373178 2.290712 0 CFG=1
M  V30 52 C -4.424632 -0.832075 3.098683 0
M  V30 53 F -4.777921 -1.585667 4.186070 0
M  V30 54 F -5.540632 -0.533383 2.329070 0
M  V30 55 N 1.073984 0.351512 0.326687 0
M  V30 56 C 2.310846 -0.196114 0.803297 0
M  V30 57 C 0.527791 1.626660 0.179864 0
M  V30 58 O 1.446443 2.244090 0.753113 0
M  V30 59 H -2.521995 1.349021 1.072746 0
M  V30 60 H -3.183934 2.753063 1.896049 0
M  V30 61 H -1.693838 2.088105 2.540683 0
M  V30 62 H 0.024739 3.645872 2.220265 0
M  V30 63 H 0.166287 4.523538 0.645837 0
M  V30 64 H -1.176277 4.946984 1.720065 0
M  V30 65 H -1.846957 4.592446 -0.879964 0
M  V30 66 H -3.099795 3.336061 -0.719065 0
M  V30 67 H -3.006209 4.604673 0.554232 0
M  V30 68 H -0.184317 3.070595 -1.046044 0
M  V30 69 H -2.415851 1.016938 -0.906189 0
M  V30 70 H -2.080874 1.790671 -5.152691 0
M  V30 71 H -2.863734 0.188686 -6.652974 0
M  V30 72 H -3.334919 -0.753237 -5.191972 0
M  V30 73 H -1.535093 -1.720415 -7.000723 0
M  V30 74 H -1.441246 -2.053064 -5.195104 0
M  V30 75 H 0.685001 -1.223993 -5.588519 0
M  V30 76 H 0.154421 -0.009514 -6.858426 0
M  V30 77 H -0.013020 0.088501 -3.883648 0
M  V30 78 H 1.999163 2.680137 -5.420415 0
M  V30 79 H 1.837639 1.185962 -6.333103 0
M  V30 80 H 2.448526 1.513722 -3.375353 0
M  V30 81 H 3.295395 -0.601555 -5.288624 0
M  V30 82 H 2.978936 -4.501484 -5.699787 0
M  V30 83 H 2.132414 -6.871091 -5.437221 0
M  V30 84 H 1.717466 -7.684042 -3.072044 0
M  V30 85 H 2.154467 -6.166174 -1.180081 0
M  V30 86 H 2.286605 -2.270995 1.436182 0
M  V30 87 H 0.744172 -2.845181 -0.371796 0
M  V30 88 H 1.594326 -1.767150 -1.479906 0
M  V30 89 H -0.172471 -0.478494 -1.123112 0
M  V30 90 H -0.113026 -0.291968 2.452048 0
M  V30 91 H -0.164129 0.073347 4.418905 0
M  V30 92 H -1.290074 -2.411694 9.015228 0
M  V30 93 H -2.655376 -2.573865 7.916274 0
M  V30 94 H -0.905179 -2.575535 7.297372 0
M  V30 95 H -3.704844 -0.499091 8.740536 0
M  V30 96 H -3.144108 1.100381 7.997664 0
M  V30 97 H -1.617096 -0.453185 10.108351 0
M  V30 98 H -0.995656 1.061518 9.240389 0
M  V30 99 H -3.297888 -3.254175 3.373197 0
M  V30 100 H -2.465233 -3.417625 1.778244 0
M  V30 101 H -3.326437 -1.085751 1.234720 0
M  V30 102 H -4.098397 0.169858 3.497174 0
M  V30 103 H 3.123877 0.306938 0.185318 0
M  V30 104 H 2.560911 0.104035 1.846355 0
M  V30 END ATOM
M  V30 BEGIN BOND
M  V30 1 1 1 2
M  V30 2 1 2 3
M  V30 3 1 2 4
M  V30 4 1 2 5
M  V30 5 1 5 6
M  V30 6 1 6 7
M  V30 7 2 7 8
M  V30 8 1 7 9
M  V30 9 1 9 10
M  V30 10 1 10 11
M  V30 11 1 11 12
M  V30 12 1 12 13
M  V30 13 1 13 14
M  V30 14 1 14 15
M  V30 15 1 15 16
M  V30 16 1 16 17
M  V30 17 2 17 18
M  V30 18 1 18 19
M  V30 19 1 19 20
M  V30 20 1 19 21
M  V30 21 1 19 22
M  V30 22 2 22 23
M  V30 23 1 23 24
M  V30 24 2 24 25
M  V30 25 1 25 26
M  V30 26 2 26 27
M  V30 27 1 27 28
M  V30 28 2 28 29
M  V30 29 1 29 30
M  V30 30 2 30 31
M  V30 31 1 31 32
M  V30 32 1 32 33
M  V30 33 1 33 34
M  V30 34 1 34 35
M  V30 35 1 35 36
M  V30 36 2 36 37
M  V30 37 1 36 38
M  V30 38 1 39 38 CFG=3
M  V30 39 1 39 40
M  V30 40 2 40 41
M  V30 41 1 40 42
M  V30 42 1 42 43
M  V30 43 2 43 44
M  V30 44 2 43 45
M  V30 45 1 43 46
M  V30 46 1 46 47
M  V30 47 1 46 48
M  V30 48 1 48 49
M  V30 49 1 39 50
M  V30 50 1 50 51
M  V30 51 1 51 52
M  V30 52 1 52 53
M  V30 53 1 52 54
M  V30 54 1 35 55
M  V30 55 1 55 56
M  V30 56 1 55 57
M  V30 57 2 57 58
M  V30 58 1 57 5
M  V30 59 1 14 10
M  V30 60 1 31 22
M  V30 61 1 56 33
M  V30 62 1 29 24
M  V30 63 1 51 39
M  V30 64 1 49 46
M  V30 65 1 1 59
M  V30 66 1 1 60
M  V30 67 1 1 61
M  V30 68 1 3 62
M  V30 69 1 3 63
M  V30 70 1 3 64
M  V30 71 1 4 65
M  V30 72 1 4 66
M  V30 73 1 4 67
M  V30 74 1 5 68 CFG=3
M  V30 75 1 6 69
M  V30 76 1 10 70 CFG=3
M  V30 77 1 11 71
M  V30 78 1 11 72
M  V30 79 1 12 73
M  V30 80 1 12 74
M  V30 81 1 13 75
M  V30 82 1 13 76
M  V30 83 1 14 77 CFG=1
M  V30 84 1 16 78
M  V30 85 1 16 79
M  V30 86 1 17 80
M  V30 87 1 18 81
M  V30 88 1 25 82
M  V30 89 1 26 83
M  V30 90 1 27 84
M  V30 91 1 28 85
M  V30 92 1 33 86 CFG=1
M  V30 93 1 34 87
M  V30 94 1 34 88
M  V30 95 1 35 89 CFG=3
M  V30 96 1 38 90
M  V30 97 1 42 91
M  V30 98 1 47 92
M  V30 99 1 47 93
M  V30 100 1 47 94
M  V30 101 1 48 95
M  V30 102 1 48 96
M  V30 103 1 49 97
M  V30 104 1 49 98
M  V30 105 1 50 99
M  V30 106 1 50 100
M  V30 107 1 51 101 CFG=3
M  V30 108 1 52 102
M  V30 109 1 56 103
M  V30 110 1 56 104
M  V30 END BOND
M  V30 END CTAB
M  END
>  <Dataset>  (421) 
OralDrugs

>  <Ligand_Instance>  (421) 
nan

>  <PDB_ID>  (421) 
nan

>  <Standardized_SMILES>  (421) 
CC(C)(C)[C@@H]1NC(=O)O[C@@H]2CCC[C@H]2OC/C=C/C(F)(F)c2nc3ccccc3nc2O[C@@H]2C[C@@H](C(=O)N[C@]3(C(=O)NS(=O)(=O)C4(C)CC4)C[C@H]3C(F)F)N(C2)C1=O

>  <Name>  (421) 
Glecaprevir

>  <Pocket>  (421) 
nan

>  <ATP_Site>  (421) 
nan

>  <Peripheral>  (421) 
nan

>  <Num_H_Atoms_ProtBoundConf>  (421) 
nan

>  <Num_Resolved_Atoms>  (421) 
nan

>  <Num_Not_Resolved_Atoms>  (421) 
nan

$$$$
CHEMBL1481
     RDKit          3D

  0  0  0  0  0  0  0  0  0  0999 V3000
M  V30 BEGIN CTAB
M  V30 COUNTS 68 70 0 0 0
M  V30 BEGIN ATOM
M  V30 1 C 4.562771 -0.027770 3.944980 0
M  V30 2 C 3.125586 0.274921 3.701849 0
M  V30 3 C 2.858626 1.398217 2.792735 0
M  V30 4 C 3.509763 2.277338 2.086077 0
M  V30 5 C 4.991002 2.358760 2.028672 0
M  V30 6 C 2.615572 3.197011 1.339364 0
M  V30 7 N 1.297276 2.743760 1.688256 0
M  V30 8 C 0.236634 3.464346 1.087059 0
M  V30 9 O 0.906076 4.295443 0.419791 0
M  V30 10 N -1.171810 3.268064 1.226945 0
M  V30 11 C -1.863404 4.237312 0.425386 0
M  V30 12 C -3.354255 4.010981 0.584966 0
M  V30 13 C -3.722798 2.624023 0.135195 0
M  V30 14 C -3.765858 1.527577 0.963920 0
M  V30 15 C -4.109235 0.296786 0.446640 0
M  V30 16 C -4.405543 0.179481 -0.895365 0
M  V30 17 S -4.832076 -1.439260 -1.469930 0
M  V30 18 O -5.488404 -2.175850 -0.371367 0
M  V30 19 O -5.761940 -1.370492 -2.638068 0
M  V30 20 N -3.310787 -2.169159 -1.923702 0
M  V30 21 C -2.614176 -2.891972 -0.904341 0
M  V30 22 O -3.198588 -2.909394 0.202484 0
M  V30 23 N -1.367348 -3.546687 -1.088428 0
M  V30 24 C -0.789744 -4.228736 0.020208 0 CFG=1
M  V30 25 C -0.841679 -5.710450 -0.319592 0
M  V30 26 C -0.079784 -5.874424 -1.616253 0
M  V30 27 C 1.257015 -5.194715 -1.627490 0 CFG=2
M  V30 28 C 2.352984 -6.138318 -2.142349 0
M  V30 29 C 1.647700 -4.821611 -0.230282 0
M  V30 30 C 0.591701 -3.951193 0.420244 0
M  V30 31 C -4.367619 1.268824 -1.740723 0
M  V30 32 C -4.022627 2.485188 -1.202215 0
M  V30 33 C 1.420426 1.657221 2.570392 0
M  V30 34 O 0.333334 1.145941 2.975788 0
M  V30 35 H 5.055638 0.619500 4.694168 0
M  V30 36 H 5.188289 -0.048016 3.046309 0
M  V30 37 H 4.635118 -1.072316 4.375525 0
M  V30 38 H 2.667866 -0.661203 3.268504 0
M  V30 39 H 2.605462 0.420001 4.676754 0
M  V30 40 H 5.400397 2.329918 3.071182 0
M  V30 41 H 5.450958 1.612641 1.353378 0
M  V30 42 H 5.323697 3.345463 1.638044 0
M  V30 43 H 2.723279 4.252765 1.702252 0
M  V30 44 H 2.815639 3.228695 0.253861 0
M  V30 45 H -1.286161 2.465249 1.881020 0
M  V30 46 H -1.573890 4.114869 -0.659989 0
M  V30 47 H -1.613485 5.237701 0.806761 0
M  V30 48 H -3.903680 4.765310 -0.014711 0
M  V30 49 H -3.593864 4.152825 1.658224 0
M  V30 50 H -3.530873 1.659271 1.998079 0
M  V30 51 H -4.118358 -0.511381 1.171146 0
M  V30 52 H -2.884053 -2.115408 -2.869255 0
M  V30 53 H -1.015390 -3.436157 -2.065831 0
M  V30 54 H -1.477303 -4.103352 0.891948 0
M  V30 55 H -1.883536 -6.029132 -0.537858 0
M  V30 56 H -0.352157 -6.325106 0.455612 0
M  V30 57 H -0.690968 -5.404870 -2.440904 0
M  V30 58 H 0.091677 -6.940499 -1.866685 0
M  V30 59 H 1.310472 -4.318188 -2.310678 0
M  V30 60 H 3.304259 -5.586693 -2.094230 0
M  V30 61 H 2.341948 -7.088013 -1.576010 0
M  V30 62 H 2.109174 -6.268769 -3.227235 0
M  V30 63 H 1.814732 -5.777040 0.333546 0
M  V30 64 H 2.629347 -4.305997 -0.208960 0
M  V30 65 H 0.925834 -2.902253 0.399618 0
M  V30 66 H 0.680512 -4.218362 1.518099 0
M  V30 67 H -4.603394 1.151350 -2.785015 0
M  V30 68 H -4.003203 3.315169 -1.892742 0
M  V30 END ATOM
M  V30 BEGIN BOND
M  V30 1 1 1 2
M  V30 2 1 2 3
M  V30 3 2 3 4
M  V30 4 1 4 5
M  V30 5 1 4 6
M  V30 6 1 6 7
M  V30 7 1 7 8
M  V30 8 2 8 9
M  V30 9 1 8 10
M  V30 10 1 10 11
M  V30 11 1 11 12
M  V30 12 1 12 13
M  V30 13 2 13 14
M  V30 14 1 14 15
M  V30 15 2 15 16
M  V30 16 1 16 17
M  V30 17 2 17 18
M  V30 18 2 17 19
M  V30 19 1 17 20
M  V30 20 1 20 21
M  V30 21 2 21 22
M  V30 22 1 21 23
M  V30 23 1 23 24
M  V30 24 1 24 25
M  V30 25 1 25 26
M  V30 26 1 26 27
M  V30 27 1 27 28
M  V30 28 1 27 29
M  V30 29 1 29 30
M  V30 30 1 16 31
M  V30 31 2 31 32
M  V30 32 1 7 33
M  V30 33 2 33 34
M  V30 34 1 33 3
M  V30 35 1 32 13
M  V30 36 1 30 24
M  V30 37 1 1 35
M  V30 38 1 1 36
M  V30 39 1 1 37
M  V30 40 1 2 38
M  V30 41 1 2 39
M  V30 42 1 5 40
M  V30 43 1 5 41
M  V30 44 1 5 42
M  V30 45 1 6 43
M  V30 46 1 6 44
M  V30 47 1 10 45
M  V30 48 1 11 46
M  V30 49 1 11 47
M  V30 50 1 12 48
M  V30 51 1 12 49
M  V30 52 1 14 50
M  V30 53 1 15 51
M  V30 54 1 20 52
M  V30 55 1 23 53
M  V30 56 1 24 54 CFG=1
M  V30 57 1 25 55
M  V30 58 1 25 56
M  V30 59 1 26 57
M  V30 60 1 26 58
M  V30 61 1 27 59 CFG=3
M  V30 62 1 28 60
M  V30 63 1 28 61
M  V30 64 1 28 62
M  V30 65 1 29 63
M  V30 66 1 29 64
M  V30 67 1 30 65
M  V30 68 1 30 66
M  V30 69 1 31 67
M  V30 70 1 32 68
M  V30 END BOND
M  V30 END CTAB
M  END
>  <Dataset>  (422) 
OralDrugs

>  <Ligand_Instance>  (422) 
nan

>  <PDB_ID>  (422) 
nan

>  <Standardized_SMILES>  (422) 
CCC1=C(C)CN(C(=O)NCCc2ccc(S(=O)(=O)NC(=O)N[C@H]3CC[C@H](C)CC3)cc2)C1=O

>  <Name>  (422) 
Glimepiride

>  <Pocket>  (422) 
nan

>  <ATP_Site>  (422) 
nan

>  <Peripheral>  (422) 
nan

>  <Num_H_Atoms_ProtBoundConf>  (422) 
nan

>  <Num_Resolved_Atoms>  (422) 
nan

>  <Num_Not_Resolved_Atoms>  (422) 
nan

$$$$
CHEMBL1073
     RDKit          3D

  0  0  0  0  0  0  0  0  0  0999 V3000
M  V30 BEGIN CTAB
M  V30 COUNTS 58 60 0 0 0
M  V30 BEGIN ATOM
M  V30 1 C 6.583629 2.826645 6.558161 0
M  V30 2 C 6.185215 2.752980 5.128982 0
M  V30 3 C 5.347039 1.695511 4.773396 0
M  V30 4 N 4.948712 1.570654 3.493327 0
M  V30 5 C 5.361951 2.463104 2.577061 0
M  V30 6 C 4.940693 2.349725 1.163768 0
M  V30 7 O 5.319856 3.185649 0.274511 0
M  V30 8 N 4.082437 1.299777 0.696326 0
M  V30 9 C 3.875458 1.490335 -0.725536 0
M  V30 10 C 2.971991 0.397986 -1.253530 0
M  V30 11 C 1.645382 0.388657 -0.599518 0
M  V30 12 C 0.586524 1.132272 -1.091956 0
M  V30 13 C -0.678878 1.173696 -0.540849 0
M  V30 14 C -0.928887 0.422768 0.589066 0
M  V30 15 S -2.466403 0.365102 1.404922 0
M  V30 16 O -2.269287 0.058793 2.880911 0
M  V30 17 O -3.209632 1.665291 1.363431 0
M  V30 18 N -3.498360 -0.870456 0.812324 0
M  V30 19 C -3.215711 -1.790991 -0.228732 0
M  V30 20 O -2.096640 -1.673718 -0.754938 0
M  V30 21 N -4.225718 -2.708690 -0.529718 0
M  V30 22 C -4.080783 -3.697180 -1.557570 0
M  V30 23 C -5.106719 -3.394323 -2.630004 0
M  V30 24 C -6.364353 -4.241096 -2.417440 0
M  V30 25 C -6.092917 -5.712945 -2.551370 0
M  V30 26 C -4.591358 -5.909106 -2.383427 0
M  V30 27 C -4.229296 -5.103509 -1.137198 0
M  V30 28 C 0.089107 -0.341025 1.128173 0
M  V30 29 C 1.332534 -0.339523 0.529838 0
M  V30 30 C 6.186265 3.515307 2.891060 0
M  V30 31 N 6.565815 3.613713 4.171205 0
M  V30 32 H 7.599715 3.268951 6.588156 0
M  V30 33 H 6.680305 1.818102 7.013115 0
M  V30 34 H 5.925579 3.461981 7.159595 0
M  V30 35 H 4.961078 0.930220 5.428283 0
M  V30 36 H 3.807170 0.649865 1.469545 0
M  V30 37 H 3.310767 2.448970 -0.919741 0
M  V30 38 H 4.821594 1.523281 -1.273615 0
M  V30 39 H 3.467234 -0.593371 -1.223457 0
M  V30 40 H 2.830935 0.629060 -2.339531 0
M  V30 41 H 0.694638 1.747595 -1.971564 0
M  V30 42 H -1.478832 1.766918 -0.954960 0
M  V30 43 H -4.423793 -0.880244 1.330786 0
M  V30 44 H -5.143691 -2.728077 -0.024577 0
M  V30 45 H -3.075351 -3.607748 -2.051495 0
M  V30 46 H -4.755321 -3.609405 -3.654177 0
M  V30 47 H -5.431042 -2.340595 -2.618306 0
M  V30 48 H -7.118713 -3.913893 -3.155630 0
M  V30 49 H -6.781023 -3.959990 -1.427904 0
M  V30 50 H -6.542658 -6.198482 -1.636438 0
M  V30 51 H -6.495152 -6.182291 -3.457538 0
M  V30 52 H -4.342601 -6.982737 -2.249469 0
M  V30 53 H -4.041852 -5.490909 -3.252535 0
M  V30 54 H -3.242492 -5.456156 -0.718453 0
M  V30 55 H -5.037767 -5.307109 -0.411875 0
M  V30 56 H -0.072681 -0.940047 2.011651 0
M  V30 57 H 2.100065 -0.950546 0.981090 0
M  V30 58 H 6.560832 4.273402 2.211627 0
M  V30 END ATOM
M  V30 BEGIN BOND
M  V30 1 1 1 2
M  V30 2 2 2 3
M  V30 3 1 3 4
M  V30 4 2 4 5
M  V30 5 1 5 6
M  V30 6 2 6 7
M  V30 7 1 6 8
M  V30 8 1 8 9
M  V30 9 1 9 10
M  V30 10 1 10 11
M  V30 11 2 11 12
M  V30 12 1 12 13
M  V30 13 2 13 14
M  V30 14 1 14 15
M  V30 15 2 15 16
M  V30 16 2 15 17
M  V30 17 1 15 18
M  V30 18 1 18 19
M  V30 19 2 19 20
M  V30 20 1 19 21
M  V30 21 1 21 22
M  V30 22 1 22 23
M  V30 23 1 23 24
M  V30 24 1 24 25
M  V30 25 1 25 26
M  V30 26 1 26 27
M  V30 27 1 14 28
M  V30 28 2 28 29
M  V30 29 1 5 30
M  V30 30 2 30 31
M  V30 31 1 31 2
M  V30 32 1 29 11
M  V30 33 1 27 22
M  V30 34 1 1 32
M  V30 35 1 1 33
M  V30 36 1 1 34
M  V30 37 1 3 35
M  V30 38 1 8 36
M  V30 39 1 9 37
M  V30 40 1 9 38
M  V30 41 1 10 39
M  V30 42 1 10 40
M  V30 43 1 12 41
M  V30 44 1 13 42
M  V30 45 1 18 43
M  V30 46 1 21 44
M  V30 47 1 22 45
M  V30 48 1 23 46
M  V30 49 1 23 47
M  V30 50 1 24 48
M  V30 51 1 24 49
M  V30 52 1 25 50
M  V30 53 1 25 51
M  V30 54 1 26 52
M  V30 55 1 26 53
M  V30 56 1 27 54
M  V30 57 1 27 55
M  V30 58 1 28 56
M  V30 59 1 29 57
M  V30 60 1 30 58
M  V30 END BOND
M  V30 END CTAB
M  END
>  <Dataset>  (423) 
OralDrugs

>  <Ligand_Instance>  (423) 
nan

>  <PDB_ID>  (423) 
nan

>  <Standardized_SMILES>  (423) 
Cc1cnc(C(=O)NCCc2ccc(S(=O)(=O)NC(=O)NC3CCCCC3)cc2)cn1

>  <Name>  (423) 
Glipizide

>  <Pocket>  (423) 
nan

>  <ATP_Site>  (423) 
nan

>  <Peripheral>  (423) 
nan

>  <Num_H_Atoms_ProtBoundConf>  (423) 
nan

>  <Num_Resolved_Atoms>  (423) 
nan

>  <Num_Not_Resolved_Atoms>  (423) 
nan

$$$$
CHEMBL930
     RDKit          3D

  0  0  0  0  0  0  0  0  0  0999 V3000
M  V30 BEGIN CTAB
M  V30 COUNTS 20 19 0 0 0
M  V30 BEGIN ATOM
M  V30 1 N -0.324330 2.271111 2.665452 0
M  V30 2 C 0.180966 1.005681 2.267691 0
M  V30 3 O -0.246123 -0.027367 2.857265 0
M  V30 4 C 1.184283 1.141955 1.158693 0
M  V30 5 C 1.691536 -0.193248 0.767264 0
M  V30 6 C 0.746285 -1.199951 0.272203 0 CFG=2
M  V30 7 N 1.548695 -2.402862 -0.028393 0
M  V30 8 C -0.014085 -0.958876 -0.925851 0
M  V30 9 O -0.762588 0.029871 -0.865585 0
M  V30 10 O -0.154980 -1.542650 -2.184577 0
M  V30 11 H -1.102962 2.343967 1.989709 0
M  V30 12 H -0.737606 3.179714 2.904015 0
M  V30 13 H 0.847046 1.796266 0.364148 0
M  V30 14 H 2.029927 1.683298 1.639866 0
M  V30 15 H 2.193444 -0.620264 1.665121 0
M  V30 16 H 2.527445 -0.051338 0.040338 0
M  V30 17 H 0.046053 -1.513306 1.076733 0
M  V30 18 H 1.085395 -3.265194 0.281877 0
M  V30 19 H 1.832844 -2.425363 -1.013175 0
M  V30 20 H -1.011150 -1.922564 -2.539359 0
M  V30 END ATOM
M  V30 BEGIN BOND
M  V30 1 1 1 2
M  V30 2 2 2 3
M  V30 3 1 2 4
M  V30 4 1 4 5
M  V30 5 1 5 6
M  V30 6 1 6 7
M  V30 7 1 6 8
M  V30 8 2 8 9
M  V30 9 1 8 10
M  V30 10 1 1 11
M  V30 11 1 1 12
M  V30 12 1 4 13
M  V30 13 1 4 14
M  V30 14 1 5 15
M  V30 15 1 5 16
M  V30 16 1 6 17 CFG=1
M  V30 17 1 7 18
M  V30 18 1 7 19
M  V30 19 1 10 20
M  V30 END BOND
M  V30 END CTAB
M  END
>  <Dataset>  (424) 
OralDrugs

>  <Ligand_Instance>  (424) 
nan

>  <PDB_ID>  (424) 
nan

>  <Standardized_SMILES>  (424) 
NC(=O)CC[C@H](N)C(=O)O

>  <Name>  (424) 
Glutamine

>  <Pocket>  (424) 
nan

>  <ATP_Site>  (424) 
nan

>  <Peripheral>  (424) 
nan

>  <Num_H_Atoms_ProtBoundConf>  (424) 
nan

>  <Num_Resolved_Atoms>  (424) 
nan

>  <Num_Not_Resolved_Atoms>  (424) 
nan

$$$$
CHEMBL1102
     RDKit          3D

  0  0  0  0  0  0  0  0  0  0999 V3000
M  V30 BEGIN CTAB
M  V30 COUNTS 31 32 0 0 0
M  V30 BEGIN ATOM
M  V30 1 C -1.450464 -0.166039 2.336605 0
M  V30 2 C -1.259641 -0.040545 0.847485 0
M  V30 3 C 0.156959 -0.291079 0.410301 0
M  V30 4 C 0.572816 -1.620864 0.775219 0
M  V30 5 C 0.969903 -1.733917 2.094661 0
M  V30 6 C 1.402759 -2.946799 2.638855 0
M  V30 7 C 1.459412 -4.112778 1.883036 0
M  V30 8 C 1.068497 -4.024529 0.564805 0
M  V30 9 C 0.651343 -2.807758 0.080102 0
M  V30 10 C 0.275393 -0.152168 -1.115842 0
M  V30 11 C -0.448514 1.102967 -1.545161 0
M  V30 12 C 0.059598 2.255247 -0.782449 0
M  V30 13 O -0.060868 3.387049 -1.364960 0
M  V30 14 N 0.653973 2.136186 0.529182 0
M  V30 15 C 0.998224 0.809768 0.928884 0
M  V30 16 O 2.005945 0.716743 1.698915 0
M  V30 17 H -1.335702 -1.177162 2.724402 0
M  V30 18 H -0.774365 0.525803 2.906040 0
M  V30 19 H -2.526161 0.128444 2.533503 0
M  V30 20 H -1.561441 1.010543 0.601718 0
M  V30 21 H -1.978529 -0.732618 0.366691 0
M  V30 22 H 1.033477 -1.011618 2.899439 0
M  V30 23 H 1.736413 -3.145631 3.662772 0
M  V30 24 H 1.777059 -5.066619 2.229921 0
M  V30 25 H 1.083802 -4.885863 -0.088180 0
M  V30 26 H 0.351852 -2.782170 -0.955386 0
M  V30 27 H -0.063026 -1.032278 -1.655704 0
M  V30 28 H 1.355555 0.008149 -1.319217 0
M  V30 29 H -1.534551 0.928991 -1.428724 0
M  V30 30 H -0.263667 1.207936 -2.641724 0
M  V30 31 H 0.798589 2.988295 1.100277 0
M  V30 END ATOM
M  V30 BEGIN BOND
M  V30 1 1 1 2
M  V30 2 1 2 3
M  V30 3 1 3 4
M  V30 4 2 4 5
M  V30 5 1 5 6
M  V30 6 2 6 7
M  V30 7 1 7 8
M  V30 8 2 8 9
M  V30 9 1 3 10
M  V30 10 1 10 11
M  V30 11 1 11 12
M  V30 12 2 12 13
M  V30 13 1 12 14
M  V30 14 1 14 15
M  V30 15 2 15 16
M  V30 16 1 15 3
M  V30 17 1 9 4
M  V30 18 1 1 17
M  V30 19 1 1 18
M  V30 20 1 1 19
M  V30 21 1 2 20
M  V30 22 1 2 21
M  V30 23 1 5 22
M  V30 24 1 6 23
M  V30 25 1 7 24
M  V30 26 1 8 25
M  V30 27 1 9 26
M  V30 28 1 10 27
M  V30 29 1 10 28
M  V30 30 1 11 29
M  V30 31 1 11 30
M  V30 32 1 14 31
M  V30 END BOND
M  V30 END CTAB
M  END
>  <Dataset>  (425) 
OralDrugs

>  <Ligand_Instance>  (425) 
nan

>  <PDB_ID>  (425) 
nan

>  <Standardized_SMILES>  (425) 
CCC1(c2ccccc2)CCC(=O)NC1=O

>  <Name>  (425) 
Glutethimide

>  <Pocket>  (425) 
nan

>  <ATP_Site>  (425) 
nan

>  <Peripheral>  (425) 
nan

>  <Num_H_Atoms_ProtBoundConf>  (425) 
nan

>  <Num_Resolved_Atoms>  (425) 
nan

>  <Num_Not_Resolved_Atoms>  (425) 
nan

$$$$
CHEMBL472
     RDKit          3D

  0  0  0  0  0  0  0  0  0  0999 V3000
M  V30 BEGIN CTAB
M  V30 COUNTS 61 63 0 0 0
M  V30 BEGIN ATOM
M  V30 1 C 3.269370 -0.352164 0.237074 0
M  V30 2 O 2.793992 0.689541 1.029195 0
M  V30 3 C 3.077820 0.761800 2.364279 0
M  V30 4 C 3.852864 -0.222378 2.932787 0
M  V30 5 C 4.162116 -0.194852 4.254130 0
M  V30 6 C 3.673982 0.846833 4.994749 0
M  V30 7 Cl 4.058190 0.904621 6.697820 0
M  V30 8 C 2.904712 1.816967 4.412985 0
M  V30 9 C 2.563888 1.826244 3.059921 0
M  V30 10 C 1.741404 2.916029 2.574378 0
M  V30 11 O 1.372616 3.804400 3.398577 0
M  V30 12 N 1.264267 3.162481 1.287317 0
M  V30 13 C 0.447690 4.255057 0.847964 0
M  V30 14 C -0.867058 4.225000 1.588861 0
M  V30 15 C -1.623769 2.948376 1.347619 0
M  V30 16 C -1.562575 1.791644 2.079362 0
M  V30 17 C -2.325427 0.705037 1.717273 0
M  V30 18 C -3.169021 0.719786 0.629871 0
M  V30 19 S -4.149951 -0.645638 0.146280 0
M  V30 20 O -4.497385 -1.427390 1.396530 0
M  V30 21 O -5.393077 -0.146647 -0.531980 0
M  V30 22 N -3.319543 -1.676239 -0.964317 0
M  V30 23 C -2.512771 -2.775145 -0.540151 0
M  V30 24 O -2.468894 -2.915109 0.717331 0
M  V30 25 N -1.824497 -3.629331 -1.460725 0
M  V30 26 C -1.042532 -4.705019 -0.887653 0
M  V30 27 C 0.389296 -4.547340 -1.345280 0
M  V30 28 C 0.410401 -4.508515 -2.839381 0
M  V30 29 C -0.086358 -5.832853 -3.366202 0
M  V30 30 C -1.399675 -6.269279 -2.812053 0
M  V30 31 C -1.516377 -6.064996 -1.321693 0
M  V30 32 C -3.266800 1.858884 -0.138546 0
M  V30 33 C -2.478844 2.940834 0.258203 0
M  V30 34 H 2.933363 -0.165972 -0.822118 0
M  V30 35 H 4.381773 -0.383353 0.162768 0
M  V30 36 H 2.926645 -1.344431 0.601419 0
M  V30 37 H 4.221382 -1.030210 2.317857 0
M  V30 38 H 4.766712 -0.966754 4.686764 0
M  V30 39 H 2.559697 2.607564 5.077954 0
M  V30 40 H 1.525562 2.480230 0.553215 0
M  V30 41 H 0.211829 4.204495 -0.224734 0
M  V30 42 H 0.905779 5.246703 1.095530 0
M  V30 43 H -0.745935 4.334074 2.682473 0
M  V30 44 H -1.527125 5.081067 1.251051 0
M  V30 45 H -0.899368 1.807705 2.921825 0
M  V30 46 H -2.259434 -0.199523 2.312583 0
M  V30 47 H -3.406054 -1.494333 -1.995918 0
M  V30 48 H -1.976165 -3.366066 -2.440484 0
M  V30 49 H -1.128796 -4.681091 0.219395 0
M  V30 50 H 0.884094 -3.671628 -0.881580 0
M  V30 51 H 0.929379 -5.448499 -1.022623 0
M  V30 52 H -0.175087 -3.711034 -3.307659 0
M  V30 53 H 1.445237 -4.396873 -3.241010 0
M  V30 54 H -0.235405 -5.683003 -4.473698 0
M  V30 55 H 0.710129 -6.588367 -3.266524 0
M  V30 56 H -1.474822 -7.364277 -2.998332 0
M  V30 57 H -2.264638 -5.813206 -3.325838 0
M  V30 58 H -0.811351 -6.796088 -0.847980 0
M  V30 59 H -2.522363 -6.333727 -1.002926 0
M  V30 60 H -3.905302 1.925748 -0.992980 0
M  V30 61 H -2.575605 3.829600 -0.367526 0
M  V30 END ATOM
M  V30 BEGIN BOND
M  V30 1 1 1 2
M  V30 2 1 2 3
M  V30 3 2 3 4
M  V30 4 1 4 5
M  V30 5 2 5 6
M  V30 6 1 6 7
M  V30 7 1 6 8
M  V30 8 2 8 9
M  V30 9 1 9 10
M  V30 10 2 10 11
M  V30 11 1 10 12
M  V30 12 1 12 13
M  V30 13 1 13 14
M  V30 14 1 14 15
M  V30 15 2 15 16
M  V30 16 1 16 17
M  V30 17 2 17 18
M  V30 18 1 18 19
M  V30 19 2 19 20
M  V30 20 2 19 21
M  V30 21 1 19 22
M  V30 22 1 22 23
M  V30 23 2 23 24
M  V30 24 1 23 25
M  V30 25 1 25 26
M  V30 26 1 26 27
M  V30 27 1 27 28
M  V30 28 1 28 29
M  V30 29 1 29 30
M  V30 30 1 30 31
M  V30 31 1 18 32
M  V30 32 2 32 33
M  V30 33 1 9 3
M  V30 34 1 33 15
M  V30 35 1 31 26
M  V30 36 1 1 34
M  V30 37 1 1 35
M  V30 38 1 1 36
M  V30 39 1 4 37
M  V30 40 1 5 38
M  V30 41 1 8 39
M  V30 42 1 12 40
M  V30 43 1 13 41
M  V30 44 1 13 42
M  V30 45 1 14 43
M  V30 46 1 14 44
M  V30 47 1 16 45
M  V30 48 1 17 46
M  V30 49 1 22 47
M  V30 50 1 25 48
M  V30 51 1 26 49
M  V30 52 1 27 50
M  V30 53 1 27 51
M  V30 54 1 28 52
M  V30 55 1 28 53
M  V30 56 1 29 54
M  V30 57 1 29 55
M  V30 58 1 30 56
M  V30 59 1 30 57
M  V30 60 1 31 58
M  V30 61 1 31 59
M  V30 62 1 32 60
M  V30 63 1 33 61
M  V30 END BOND
M  V30 END CTAB
M  END
>  <Dataset>  (426) 
OralDrugs

>  <Ligand_Instance>  (426) 
nan

>  <PDB_ID>  (426) 
nan

>  <Standardized_SMILES>  (426) 
COc1ccc(Cl)cc1C(=O)NCCc1ccc(S(=O)(=O)NC(=O)NC2CCCCC2)cc1

>  <Name>  (426) 
Glyburide

>  <Pocket>  (426) 
nan

>  <ATP_Site>  (426) 
nan

>  <Peripheral>  (426) 
nan

>  <Num_H_Atoms_ProtBoundConf>  (426) 
nan

>  <Num_Resolved_Atoms>  (426) 
nan

>  <Num_Not_Resolved_Atoms>  (426) 
nan

$$$$
CHEMBL2105745
     RDKit          3D

  0  0  0  0  0  0  0  0  0  0999 V3000
M  V30 BEGIN CTAB
M  V30 COUNTS 77 79 0 0 0
M  V30 BEGIN ATOM
M  V30 1 O 0.367502 -2.465530 2.195022 0
M  V30 2 C 1.180771 -1.602445 1.774139 0
M  V30 3 C 2.628479 -1.881461 1.811132 0
M  V30 4 C 2.978026 -2.847412 0.692187 0
M  V30 5 C 4.443944 -3.186041 0.662413 0
M  V30 6 C 4.731932 -4.133902 -0.453899 0
M  V30 7 C 4.686272 -5.509327 -0.323838 0
M  V30 8 C 4.974147 -6.261196 -1.432133 0
M  V30 9 C 5.308013 -5.751013 -2.675471 0
M  V30 10 C 5.341440 -4.372541 -2.759477 0
M  V30 11 C 5.057124 -3.561498 -1.663451 0
M  V30 12 O 0.617607 -0.436903 1.301769 0
M  V30 13 C -0.793298 -0.205662 1.282451 0
M  V30 14 C -1.140340 1.119236 0.723212 0
M  V30 15 C -2.575863 1.476429 0.914951 0
M  V30 16 O -3.563957 0.777385 0.284221 0
M  V30 17 C -4.086665 -0.465119 0.389522 0
M  V30 18 O -3.613439 -1.196160 1.260723 0
M  V30 19 C -5.158053 -0.740742 -0.580012 0
M  V30 20 C -5.937310 -1.986313 -0.374736 0
M  V30 21 C -6.816632 -2.093709 0.809826 0
M  V30 22 C -6.244872 -1.947129 2.143019 0
M  V30 23 C -6.291670 -0.670554 2.715238 0
M  V30 24 C -5.775478 -0.511528 3.984181 0
M  V30 25 C -5.208459 -1.512467 4.751675 0
M  V30 26 C -5.178553 -2.774377 4.147650 0
M  V30 27 C -5.679567 -2.994356 2.881714 0
M  V30 28 O -0.796250 1.273841 -0.628280 0
M  V30 29 C 0.066979 2.215288 -1.103223 0
M  V30 30 O 0.451552 2.867349 -0.126219 0
M  V30 31 C 0.157572 2.039227 -2.559073 0
M  V30 32 C 1.114032 2.946864 -3.221040 0
M  V30 33 C 2.552205 2.853230 -2.929758 0
M  V30 34 C 3.045044 3.009274 -1.574392 0
M  V30 35 C 3.309863 1.863133 -0.804374 0
M  V30 36 C 3.783560 2.050365 0.499535 0
M  V30 37 C 3.972329 3.342894 0.979306 0
M  V30 38 C 3.714622 4.476219 0.229088 0
M  V30 39 C 3.247825 4.278330 -1.055591 0
M  V30 40 H 3.220838 -0.961276 1.665921 0
M  V30 41 H 2.920568 -2.299492 2.797673 0
M  V30 42 H 2.398464 -3.763306 0.859761 0
M  V30 43 H 2.717524 -2.394480 -0.279636 0
M  V30 44 H 4.714436 -3.691160 1.591821 0
M  V30 45 H 5.085305 -2.291692 0.584464 0
M  V30 46 H 4.428186 -5.935128 0.635037 0
M  V30 47 H 4.934705 -7.351550 -1.318605 0
M  V30 48 H 5.528222 -6.381492 -3.525152 0
M  V30 49 H 5.605864 -3.962565 -3.744762 0
M  V30 50 H 5.126011 -2.510152 -1.896403 0
M  V30 51 H -1.179488 -0.406601 2.279255 0
M  V30 52 H -1.152212 -1.058069 0.617374 0
M  V30 53 H -0.582290 1.878813 1.367660 0
M  V30 54 H -2.832846 1.514435 2.025123 0
M  V30 55 H -2.752767 2.575493 0.627922 0
M  V30 56 H -5.845752 0.160112 -0.598580 0
M  V30 57 H -4.655714 -0.776790 -1.596319 0
M  V30 58 H -6.584801 -2.157574 -1.283267 0
M  V30 59 H -5.230254 -2.884605 -0.408460 0
M  V30 60 H -7.648678 -1.324114 0.675825 0
M  V30 61 H -7.300517 -3.119512 0.750841 0
M  V30 62 H -6.721283 0.173390 2.180057 0
M  V30 63 H -5.831560 0.499582 4.393399 0
M  V30 64 H -4.838109 -1.276663 5.729830 0
M  V30 65 H -4.733905 -3.560573 4.749425 0
M  V30 66 H -5.645679 -3.979898 2.435004 0
M  V30 67 H 0.423672 0.987994 -2.830814 0
M  V30 68 H -0.873258 2.206951 -2.994677 0
M  V30 69 H 0.784121 4.030799 -3.179338 0
M  V30 70 H 1.014622 2.738239 -4.339707 0
M  V30 71 H 3.026574 1.943150 -3.439654 0
M  V30 72 H 3.044058 3.695155 -3.526372 0
M  V30 73 H 3.170051 0.870059 -1.158509 0
M  V30 74 H 4.019923 1.220789 1.176348 0
M  V30 75 H 4.337100 3.547803 1.983276 0
M  V30 76 H 3.859969 5.480906 0.595829 0
M  V30 77 H 3.040205 5.168357 -1.663922 0
M  V30 END ATOM
M  V30 BEGIN BOND
M  V30 1 2 1 2
M  V30 2 1 2 3
M  V30 3 1 3 4
M  V30 4 1 4 5
M  V30 5 1 5 6
M  V30 6 2 6 7
M  V30 7 1 7 8
M  V30 8 2 8 9
M  V30 9 1 9 10
M  V30 10 2 10 11
M  V30 11 1 2 12
M  V30 12 1 12 13
M  V30 13 1 13 14
M  V30 14 1 14 15
M  V30 15 1 15 16
M  V30 16 1 16 17
M  V30 17 2 17 18
M  V30 18 1 17 19
M  V30 19 1 19 20
M  V30 20 1 20 21
M  V30 21 1 21 22
M  V30 22 2 22 23
M  V30 23 1 23 24
M  V30 24 2 24 25
M  V30 25 1 25 26
M  V30 26 2 26 27
M  V30 27 1 14 28
M  V30 28 1 28 29
M  V30 29 2 29 30
M  V30 30 1 29 31
M  V30 31 1 31 32
M  V30 32 1 32 33
M  V30 33 1 33 34
M  V30 34 2 34 35
M  V30 35 1 35 36
M  V30 36 2 36 37
M  V30 37 1 37 38
M  V30 38 2 38 39
M  V30 39 1 11 6
M  V30 40 1 27 22
M  V30 41 1 39 34
M  V30 42 1 3 40
M  V30 43 1 3 41
M  V30 44 1 4 42
M  V30 45 1 4 43
M  V30 46 1 5 44
M  V30 47 1 5 45
M  V30 48 1 7 46
M  V30 49 1 8 47
M  V30 50 1 9 48
M  V30 51 1 10 49
M  V30 52 1 11 50
M  V30 53 1 13 51
M  V30 54 1 13 52
M  V30 55 1 14 53
M  V30 56 1 15 54
M  V30 57 1 15 55
M  V30 58 1 19 56
M  V30 59 1 19 57
M  V30 60 1 20 58
M  V30 61 1 20 59
M  V30 62 1 21 60
M  V30 63 1 21 61
M  V30 64 1 23 62
M  V30 65 1 24 63
M  V30 66 1 25 64
M  V30 67 1 26 65
M  V30 68 1 27 66
M  V30 69 1 31 67
M  V30 70 1 31 68
M  V30 71 1 32 69
M  V30 72 1 32 70
M  V30 73 1 33 71
M  V30 74 1 33 72
M  V30 75 1 35 73
M  V30 76 1 36 74
M  V30 77 1 37 75
M  V30 78 1 38 76
M  V30 79 1 39 77
M  V30 END BOND
M  V30 END CTAB
M  END
>  <Dataset>  (427) 
OralDrugs

>  <Ligand_Instance>  (427) 
nan

>  <PDB_ID>  (427) 
nan

>  <Standardized_SMILES>  (427) 
O=C(CCCc1ccccc1)OCC(COC(=O)CCCc1ccccc1)OC(=O)CCCc1ccccc1

>  <Name>  (427) 
Glycerol Phenylbutyrate

>  <Pocket>  (427) 
nan

>  <ATP_Site>  (427) 
nan

>  <Peripheral>  (427) 
nan

>  <Num_H_Atoms_ProtBoundConf>  (427) 
nan

>  <Num_Resolved_Atoms>  (427) 
nan

>  <Num_Not_Resolved_Atoms>  (427) 
nan

$$$$
CHEMBL1201027
     RDKit          3D

  0  0  0  0  0  0  0  0  0  0999 V3000
M  V30 BEGIN CTAB
M  V30 COUNTS 51 53 0 0 0
M  V30 BEGIN ATOM
M  V30 1 C 2.606691 -4.996653 0.554277 0
M  V30 2 N 1.727767 -3.820387 0.479725 0 CHG=1 VAL=4
M  V30 3 C 1.275697 -3.620490 1.852991 0
M  V30 4 C 0.643111 -4.155413 -0.398148 0
M  V30 5 C 0.648225 -3.146608 -1.517077 0
M  V30 6 C 1.462802 -1.963028 -0.983281 0
M  V30 7 O 0.696440 -1.086201 -0.216919 0
M  V30 8 C 0.568421 0.271154 -0.455752 0
M  V30 9 O 1.208291 0.727224 -1.455569 0
M  V30 10 C -0.245701 1.216983 0.354002 0
M  V30 11 O -0.079044 2.479020 -0.252711 0
M  V30 12 C 0.255966 1.379571 1.741224 0
M  V30 13 C 0.640718 0.295092 2.529372 0
M  V30 14 C 1.102711 0.486527 3.816286 0
M  V30 15 C 1.207847 1.731325 4.383029 0
M  V30 16 C 0.834573 2.835046 3.630163 0
M  V30 17 C 0.376539 2.616257 2.347661 0
M  V30 18 C -1.694278 0.835663 0.291884 0
M  V30 19 C -2.175478 0.874568 -1.121305 0
M  V30 20 C -3.577499 1.433693 -1.096298 0
M  V30 21 C -3.866533 1.892577 0.311321 0
M  V30 22 C -2.600882 1.654213 1.125866 0
M  V30 23 C 2.422622 -2.687959 -0.062474 0
M  V30 24 H 3.304698 -4.893549 1.421806 0
M  V30 25 H 1.926630 -5.839196 0.795556 0
M  V30 26 H 3.101015 -5.199869 -0.397963 0
M  V30 27 H 1.990018 -3.060449 2.453797 0
M  V30 28 H 1.137485 -4.600848 2.327241 0
M  V30 29 H 0.319689 -3.058629 1.767930 0
M  V30 30 H 0.783211 -5.160680 -0.887150 0
M  V30 31 H -0.343177 -4.206893 0.109808 0
M  V30 32 H 1.243682 -3.518960 -2.397562 0
M  V30 33 H -0.357693 -2.871758 -1.835076 0
M  V30 34 H 1.983437 -1.459023 -1.837123 0
M  V30 35 H 0.745463 2.513163 -0.796285 0
M  V30 36 H 0.559015 -0.688882 2.085155 0
M  V30 37 H 1.377226 -0.420071 4.348295 0
M  V30 38 H 1.575184 1.824623 5.392817 0
M  V30 39 H 0.901527 3.834461 4.038225 0
M  V30 40 H 0.082218 3.492642 1.755437 0
M  V30 41 H -1.754591 -0.227753 0.630209 0
M  V30 42 H -2.209802 -0.150174 -1.591543 0
M  V30 43 H -1.579841 1.480492 -1.811907 0
M  V30 44 H -3.695692 2.290848 -1.800835 0
M  V30 45 H -4.307835 0.668529 -1.440969 0
M  V30 46 H -4.177856 2.945404 0.311163 0
M  V30 47 H -4.725836 1.312588 0.682851 0
M  V30 48 H -2.196071 2.617755 1.486087 0
M  V30 49 H -2.941013 1.117396 2.047301 0
M  V30 50 H 3.239033 -3.096607 -0.722603 0
M  V30 51 H 2.828573 -2.023443 0.731731 0
M  V30 END ATOM
M  V30 BEGIN BOND
M  V30 1 1 1 2
M  V30 2 1 2 3
M  V30 3 1 2 4
M  V30 4 1 4 5
M  V30 5 1 5 6
M  V30 6 1 6 7
M  V30 7 1 7 8
M  V30 8 2 8 9
M  V30 9 1 8 10
M  V30 10 1 10 11
M  V30 11 1 10 12
M  V30 12 2 12 13
M  V30 13 1 13 14
M  V30 14 2 14 15
M  V30 15 1 15 16
M  V30 16 2 16 17
M  V30 17 1 10 18
M  V30 18 1 18 19
M  V30 19 1 19 20
M  V30 20 1 20 21
M  V30 21 1 21 22
M  V30 22 1 6 23
M  V30 23 1 23 2
M  V30 24 1 17 12
M  V30 25 1 22 18
M  V30 26 1 1 24
M  V30 27 1 1 25
M  V30 28 1 1 26
M  V30 29 1 3 27
M  V30 30 1 3 28
M  V30 31 1 3 29
M  V30 32 1 4 30
M  V30 33 1 4 31
M  V30 34 1 5 32
M  V30 35 1 5 33
M  V30 36 1 6 34
M  V30 37 1 11 35
M  V30 38 1 13 36
M  V30 39 1 14 37
M  V30 40 1 15 38
M  V30 41 1 16 39
M  V30 42 1 17 40
M  V30 43 1 18 41
M  V30 44 1 19 42
M  V30 45 1 19 43
M  V30 46 1 20 44
M  V30 47 1 20 45
M  V30 48 1 21 46
M  V30 49 1 21 47
M  V30 50 1 22 48
M  V30 51 1 22 49
M  V30 52 1 23 50
M  V30 53 1 23 51
M  V30 END BOND
M  V30 END CTAB
M  END
>  <Dataset>  (428) 
OralDrugs

>  <Ligand_Instance>  (428) 
nan

>  <PDB_ID>  (428) 
nan

>  <Standardized_SMILES>  (428) 
C[N+]1(C)CCC(OC(=O)C(O)(c2ccccc2)C2CCCC2)C1

>  <Name>  (428) 
Glycopyrrolate

>  <Pocket>  (428) 
nan

>  <ATP_Site>  (428) 
nan

>  <Peripheral>  (428) 
nan

>  <Num_H_Atoms_ProtBoundConf>  (428) 
nan

>  <Num_Resolved_Atoms>  (428) 
nan

>  <Num_Not_Resolved_Atoms>  (428) 
nan

$$$$
CHEMBL515387
     RDKit          3D

  0  0  0  0  0  0  0  0  0  0999 V3000
M  V30 BEGIN CTAB
M  V30 COUNTS 50 53 0 0 0
M  V30 BEGIN ATOM
M  V30 1 O -1.134509 -3.189540 2.716427 0
M  V30 2 C -0.836515 -3.147205 1.475467 0
M  V30 3 C 0.464683 -3.163448 0.836401 0 CFG=2
M  V30 4 C 1.296050 -1.992637 1.345706 0
M  V30 5 C 1.272039 -1.069587 0.163069 0 CFG=2
M  V30 6 N 0.218866 -0.175635 0.021874 0
M  V30 7 C 0.225560 0.668466 -1.137720 0
M  V30 8 C 0.364881 2.112735 -0.694379 0
M  V30 9 N 1.148671 2.092890 0.528353 0
M  V30 10 C 2.468583 2.622751 0.526071 0
M  V30 11 N 2.898071 3.116711 -0.648578 0
M  V30 12 C 4.147245 3.652670 -0.776712 0
M  V30 13 C 4.900362 3.636105 0.386046 0
M  V30 14 C 4.498892 3.139242 1.612304 0
M  V30 15 N 3.235716 2.629374 1.624737 0
M  V30 16 C 0.525876 1.513757 1.734063 0
M  V30 17 C -0.377377 0.409766 1.167786 0
M  V30 18 C 1.434530 -2.061358 -0.956107 0
M  V30 19 N 0.509351 -3.103944 -0.580428 0
M  V30 20 N -2.188778 -3.087904 1.132791 0
M  V30 21 C -2.973081 -3.112325 2.367621 0
M  V30 22 C -4.421781 -3.069352 1.890800 0
M  V30 23 C -4.301886 -3.785480 0.563249 0
M  V30 24 F -3.882977 -5.064748 0.802724 0
M  V30 25 F -5.423026 -3.683150 -0.214061 0
M  V30 26 C -3.108573 -3.010443 -0.012284 0
M  V30 27 H 0.992279 -4.118478 1.129776 0
M  V30 28 H 2.364139 -2.372427 1.430834 0
M  V30 29 H 0.967505 -1.590155 2.293789 0
M  V30 30 H 2.229803 -0.473098 0.226751 0
M  V30 31 H -0.674035 0.615540 -1.767110 0
M  V30 32 H 1.107211 0.491911 -1.792120 0
M  V30 33 H -0.652802 2.530129 -0.497309 0
M  V30 34 H 0.887612 2.721854 -1.458910 0
M  V30 35 H 4.543994 4.062488 -1.692017 0
M  V30 36 H 5.912954 4.062268 0.312284 0
M  V30 37 H 5.152032 3.167673 2.464421 0
M  V30 38 H -0.125845 2.285988 2.190577 0
M  V30 39 H 1.281272 1.115179 2.409178 0
M  V30 40 H -0.521945 -0.318278 1.956386 0
M  V30 41 H -1.364019 0.845197 0.874406 0
M  V30 42 H 2.459757 -2.480447 -0.875070 0
M  V30 43 H 1.300622 -1.673917 -1.956069 0
M  V30 44 H -0.363427 -3.132953 -1.099926 0
M  V30 45 H -2.855399 -4.065486 2.916099 0
M  V30 46 H -2.776108 -2.218906 3.001116 0
M  V30 47 H -5.127533 -3.527571 2.585872 0
M  V30 48 H -4.633016 -2.002112 1.678432 0
M  V30 49 H -2.722292 -3.476898 -0.915096 0
M  V30 50 H -3.442107 -1.966650 -0.122252 0
M  V30 END ATOM
M  V30 BEGIN BOND
M  V30 1 2 1 2
M  V30 2 1 2 3
M  V30 3 1 3 4
M  V30 4 1 4 5
M  V30 5 1 5 6
M  V30 6 1 6 7
M  V30 7 1 7 8
M  V30 8 1 8 9
M  V30 9 1 9 10
M  V30 10 2 10 11
M  V30 11 1 11 12
M  V30 12 2 12 13
M  V30 13 1 13 14
M  V30 14 2 14 15
M  V30 15 1 9 16
M  V30 16 1 16 17
M  V30 17 1 5 18
M  V30 18 1 18 19
M  V30 19 1 2 20
M  V30 20 1 20 21
M  V30 21 1 21 22
M  V30 22 1 22 23
M  V30 23 1 23 24
M  V30 24 1 23 25
M  V30 25 1 23 26
M  V30 26 1 19 3
M  V30 27 1 26 20
M  V30 28 1 17 6
M  V30 29 1 15 10
M  V30 30 1 3 27 CFG=1
M  V30 31 1 4 28
M  V30 32 1 4 29
M  V30 33 1 5 30 CFG=1
M  V30 34 1 7 31
M  V30 35 1 7 32
M  V30 36 1 8 33
M  V30 37 1 8 34
M  V30 38 1 12 35
M  V30 39 1 13 36
M  V30 40 1 14 37
M  V30 41 1 16 38
M  V30 42 1 16 39
M  V30 43 1 17 40
M  V30 44 1 17 41
M  V30 45 1 18 42
M  V30 46 1 18 43
M  V30 47 1 19 44
M  V30 48 1 21 45
M  V30 49 1 21 46
M  V30 50 1 22 47
M  V30 51 1 22 48
M  V30 52 1 26 49
M  V30 53 1 26 50
M  V30 END BOND
M  V30 END CTAB
M  END
>  <Dataset>  (429) 
OralDrugs

>  <Ligand_Instance>  (429) 
nan

>  <PDB_ID>  (429) 
nan

>  <Standardized_SMILES>  (429) 
O=C([C@@H]1C[C@H](N2CCN(c3ncccn3)CC2)CN1)N1CCC(F)(F)C1

>  <Name>  (429) 
Gosogliptin

>  <Pocket>  (429) 
nan

>  <ATP_Site>  (429) 
nan

>  <Peripheral>  (429) 
nan

>  <Num_H_Atoms_ProtBoundConf>  (429) 
nan

>  <Num_Resolved_Atoms>  (429) 
nan

>  <Num_Not_Resolved_Atoms>  (429) 
nan

$$$$
CHEMBL289469
     RDKit          3D

  0  0  0  0  0  0  0  0  0  0999 V3000
M  V30 BEGIN CTAB
M  V30 COUNTS 47 50 0 0 0
M  V30 BEGIN ATOM
M  V30 1 C 0.659852 -3.019170 0.180604 0
M  V30 2 N 1.224910 -1.756370 -0.180389 0
M  V30 3 C 2.540059 -1.487331 0.261129 0
M  V30 4 C 3.623107 -2.152721 -0.538526 0
M  V30 5 C 3.407937 -2.223663 -2.003210 0
M  V30 6 C 1.992408 -2.163884 -2.475314 0
M  V30 7 C 1.072328 -1.403153 -1.560771 0
M  V30 8 C 1.216037 0.098997 -1.703392 0
M  V30 9 C 1.625734 0.752382 -0.442552 0
M  V30 10 N 0.696388 1.285367 0.443339 0
M  V30 11 C -0.198147 1.887081 1.314460 0
M  V30 12 O 0.183400 3.088890 1.244087 0
M  V30 13 C -1.302129 1.556608 2.167131 0
M  V30 14 N -1.863762 2.600225 2.796837 0
M  V30 15 N -2.875039 2.159924 3.555864 0
M  V30 16 C -3.731088 2.976987 4.391400 0
M  V30 17 C -3.017981 0.826423 3.458341 0
M  V30 18 C -3.841657 -0.150441 3.976866 0
M  V30 19 C -3.679260 -1.497744 3.626729 0
M  V30 20 C -2.656332 -1.789631 2.740532 0
M  V30 21 C -1.827863 -0.830643 2.214904 0
M  V30 22 C -2.023168 0.469601 2.584200 0
M  V30 23 C 2.692940 0.004140 0.332220 0
M  V30 24 H 0.451258 -3.093630 1.264131 0
M  V30 25 H -0.362130 -3.036498 -0.295079 0
M  V30 26 H 1.207584 -3.891236 -0.183864 0
M  V30 27 H 2.627475 -1.883770 1.292173 0
M  V30 28 H 3.856116 -3.148155 -0.104970 0
M  V30 29 H 4.555725 -1.532235 -0.384575 0
M  V30 30 H 3.817862 -3.206145 -2.360281 0
M  V30 31 H 4.037268 -1.481939 -2.581061 0
M  V30 32 H 1.975847 -1.648574 -3.468455 0
M  V30 33 H 1.583115 -3.182716 -2.659673 0
M  V30 34 H 0.053217 -1.748685 -1.837469 0
M  V30 35 H 0.294768 0.440288 -2.158841 0
M  V30 36 H 2.005094 0.239035 -2.475574 0
M  V30 37 H 2.227977 1.659735 -0.815271 0
M  V30 38 H 0.316968 0.278698 0.520101 0
M  V30 39 H -4.705818 3.192903 3.911299 0
M  V30 40 H -3.210447 3.926192 4.667992 0
M  V30 41 H -3.909062 2.430295 5.365365 0
M  V30 42 H -4.619440 0.145616 4.660980 0
M  V30 43 H -4.315385 -2.276525 4.021974 0
M  V30 44 H -2.528096 -2.833482 2.468730 0
M  V30 45 H -1.051670 -1.118890 1.535903 0
M  V30 46 H 2.650786 0.322725 1.386007 0
M  V30 47 H 3.712400 0.270846 -0.032436 0
M  V30 END ATOM
M  V30 BEGIN BOND
M  V30 1 1 1 2
M  V30 2 1 2 3
M  V30 3 1 3 4
M  V30 4 1 4 5
M  V30 5 1 5 6
M  V30 6 1 6 7
M  V30 7 1 7 8
M  V30 8 1 8 9
M  V30 9 1 9 10
M  V30 10 1 10 11
M  V30 11 2 11 12
M  V30 12 1 11 13
M  V30 13 2 13 14
M  V30 14 1 14 15
M  V30 15 1 15 16
M  V30 16 1 15 17
M  V30 17 2 17 18
M  V30 18 1 18 19
M  V30 19 2 19 20
M  V30 20 1 20 21
M  V30 21 2 21 22
M  V30 22 1 9 23
M  V30 23 1 7 2
M  V30 24 1 22 13
M  V30 25 1 23 3
M  V30 26 1 22 17
M  V30 27 1 1 24
M  V30 28 1 1 25
M  V30 29 1 1 26
M  V30 30 1 3 27
M  V30 31 1 4 28
M  V30 32 1 4 29
M  V30 33 1 5 30
M  V30 34 1 5 31
M  V30 35 1 6 32
M  V30 36 1 6 33
M  V30 37 1 7 34
M  V30 38 1 8 35
M  V30 39 1 8 36
M  V30 40 1 9 37
M  V30 41 1 10 38
M  V30 42 1 16 39
M  V30 43 1 16 40
M  V30 44 1 16 41
M  V30 45 1 18 42
M  V30 46 1 19 43
M  V30 47 1 20 44
M  V30 48 1 21 45
M  V30 49 1 23 46
M  V30 50 1 23 47
M  V30 END BOND
M  V30 END CTAB
M  END
>  <Dataset>  (430) 
OralDrugs

>  <Ligand_Instance>  (430) 
nan

>  <PDB_ID>  (430) 
nan

>  <Standardized_SMILES>  (430) 
CN1C2CCCC1CC(NC(=O)c1nn(C)c3ccccc13)C2

>  <Name>  (430) 
Granisetron

>  <Pocket>  (430) 
nan

>  <ATP_Site>  (430) 
nan

>  <Peripheral>  (430) 
nan

>  <Num_H_Atoms_ProtBoundConf>  (430) 
nan

>  <Num_Resolved_Atoms>  (430) 
nan

>  <Num_Not_Resolved_Atoms>  (430) 
nan

$$$$
CHEMBL2063090
     RDKit          3D

  0  0  0  0  0  0  0  0  0  0999 V3000
M  V30 BEGIN CTAB
M  V30 COUNTS 104 110 0 0 0
M  V30 BEGIN ATOM
M  V30 1 C -5.122166 5.209700 -0.825857 0
M  V30 2 C -4.118537 4.283385 -0.763547 0
M  V30 3 C -2.968214 3.465959 -0.545692 0 CFG=2
M  V30 4 C -1.582350 3.929310 -0.571298 0
M  V30 5 C -2.027845 3.196105 -1.753099 0 CFG=1
M  V30 6 N -1.868781 1.786408 -1.966725 0
M  V30 7 C -0.503889 1.415720 -1.810941 0
M  V30 8 O 0.427951 2.238060 -1.497406 0
M  V30 9 C 0.265667 0.184170 -1.918260 0 CFG=2
M  V30 10 C -0.548258 -1.088291 -2.008611 0
M  V30 11 C -0.881565 -1.254368 -0.548375 0 CFG=2
M  V30 12 C 0.238856 -0.651443 0.183473 0
M  V30 13 N 1.156465 -0.018350 -0.808296 0
M  V30 14 C 2.501079 0.338723 -0.740875 0
M  V30 15 O 2.627625 -0.188534 0.379452 0
M  V30 16 C 3.873024 0.581708 -0.419953 0 CFG=2
M  V30 17 C 4.943646 0.289517 -1.388110 0
M  V30 18 C 6.247085 0.674429 -0.654727 0
M  V30 19 C 5.058139 -1.166276 -1.662509 0
M  V30 20 C 4.943097 1.159472 -2.608256 0
M  V30 21 N 4.242456 -0.105295 0.797937 0
M  V30 22 C 4.273802 -0.033785 2.184861 0
M  V30 23 O 3.741109 1.094813 2.290355 0
M  V30 24 O 4.568623 -0.535529 3.430357 0
M  V30 25 C 4.164868 0.305493 4.520515 0 CFG=2
M  V30 26 C 4.282718 -0.323168 5.880235 0
M  V30 27 C 2.986432 -0.315650 5.209281 0 CFG=1
M  V30 28 C 1.933381 0.650201 5.610348 0
M  V30 29 C 0.579636 0.024989 5.516676 0
M  V30 30 C 0.172356 -0.456340 4.164942 0
M  V30 31 C -1.224633 -1.038330 4.201608 0
M  V30 32 C -1.697604 -1.564853 2.876734 0
M  V30 33 C -0.898623 -2.659807 2.329502 0
M  V30 34 N -0.281261 -3.376512 3.280671 0
M  V30 35 C 0.495102 -4.435182 3.053436 0
M  V30 36 C 1.123925 -5.179548 4.025477 0
M  V30 37 C 1.912220 -6.270943 3.760163 0
M  V30 38 C 2.129898 -6.703147 2.460051 0
M  V30 39 O 2.899156 -7.777964 2.127072 0
M  V30 40 C 3.153362 -8.264427 0.833004 0
M  V30 41 C 1.496549 -5.951809 1.495267 0
M  V30 42 C 0.694195 -4.841554 1.766089 0
M  V30 43 N 0.091027 -4.146576 0.781527 0
M  V30 44 C -0.687968 -3.081484 1.039836 0
M  V30 45 O -1.159701 -2.587458 -0.185348 0
M  V30 46 C -2.396748 4.007879 -2.973506 0
M  V30 47 O -2.520570 5.274841 -2.863495 0
M  V30 48 N -2.618354 3.439308 -4.252197 0
M  V30 49 S -3.047211 4.250676 -5.707854 0
M  V30 50 O -2.423793 3.565012 -6.891864 0
M  V30 51 O -2.552240 5.682643 -5.706983 0
M  V30 52 C -4.820101 4.287091 -5.825653 0
M  V30 53 C -5.631227 3.178088 -5.207263 0
M  V30 54 C -5.589693 4.566237 -4.582632 0
M  V30 55 H -4.622877 5.855678 -0.121490 0
M  V30 56 H -6.053321 5.341428 -1.318999 0
M  V30 57 H -4.622025 3.603147 -1.487775 0
M  V30 58 H -3.139939 2.601818 0.158251 0
M  V30 59 H -0.831935 3.515509 0.105895 0
M  V30 60 H -1.444462 5.044601 -0.690065 0
M  V30 61 H -2.391454 0.925401 -2.193006 0
M  V30 62 H 0.804083 0.231446 -2.894300 0
M  V30 63 H 0.105528 -1.912019 -2.314824 0
M  V30 64 H -1.376993 -0.990817 -2.684658 0
M  V30 65 H -1.847579 -0.697457 -0.360328 0
M  V30 66 H -0.114365 0.157451 0.849373 0
M  V30 67 H 0.754415 -1.455622 0.747000 0
M  V30 68 H 3.939543 1.709991 -0.164895 0
M  V30 69 H 7.086409 0.699789 -1.367509 0
M  V30 70 H 6.151311 1.700145 -0.225972 0
M  V30 71 H 6.484090 -0.049613 0.142772 0
M  V30 72 H 4.945815 -1.451064 -2.719213 0
M  V30 73 H 4.346239 -1.786279 -1.046416 0
M  V30 74 H 6.060062 -1.609463 -1.367862 0
M  V30 75 H 4.624541 0.533217 -3.470759 0
M  V30 76 H 5.954359 1.534181 -2.896418 0
M  V30 77 H 4.202825 1.981649 -2.556703 0
M  V30 78 H 4.669149 -1.048736 0.845160 0
M  V30 79 H 4.326406 1.379928 4.451970 0
M  V30 80 H 4.435386 0.339843 6.763065 0
M  V30 81 H 4.775105 -1.298449 6.031964 0
M  V30 82 H 2.586784 -1.225677 4.695629 0
M  V30 83 H 2.112722 0.914360 6.682627 0
M  V30 84 H 2.018626 1.594256 5.034744 0
M  V30 85 H -0.233519 0.673960 5.917675 0
M  V30 86 H 0.582574 -0.874220 6.207368 0
M  V30 87 H 0.224150 0.413381 3.462278 0
M  V30 88 H 0.829951 -1.245124 3.780909 0
M  V30 89 H -1.892081 -0.171141 4.469229 0
M  V30 90 H -1.281469 -1.820790 4.967164 0
M  V30 91 H -2.721808 -2.002918 3.085134 0
M  V30 92 H -1.892853 -0.753165 2.141581 0
M  V30 93 H 0.943100 -4.825109 5.045756 0
M  V30 94 H 2.390483 -6.824940 4.553272 0
M  V30 95 H 2.240963 -8.279708 0.183498 0
M  V30 96 H 3.501668 -9.333925 0.867655 0
M  V30 97 H 3.936669 -7.665776 0.339564 0
M  V30 98 H 1.654362 -6.278094 0.460637 0
M  V30 99 H -2.514344 2.399932 -4.344392 0
M  V30 100 H -5.215099 4.796917 -6.740882 0
M  V30 101 H -6.597860 2.902593 -5.689452 0
M  V30 102 H -5.145565 2.360458 -4.667852 0
M  V30 103 H -5.048061 4.596776 -3.629479 0
M  V30 104 H -6.522217 5.190827 -4.658304 0
M  V30 END ATOM
M  V30 BEGIN BOND
M  V30 1 2 1 2
M  V30 2 1 2 3
M  V30 3 1 3 4
M  V30 4 1 4 5
M  V30 5 1 5 6 CFG=3
M  V30 6 1 6 7
M  V30 7 2 7 8
M  V30 8 1 7 9
M  V30 9 1 9 10
M  V30 10 1 10 11
M  V30 11 1 11 12
M  V30 12 1 12 13
M  V30 13 1 13 14
M  V30 14 2 14 15
M  V30 15 1 14 16
M  V30 16 1 16 17
M  V30 17 1 17 18
M  V30 18 1 17 19
M  V30 19 1 17 20
M  V30 20 1 16 21
M  V30 21 1 21 22
M  V30 22 2 22 23
M  V30 23 1 22 24
M  V30 24 1 24 25
M  V30 25 1 25 26
M  V30 26 1 26 27
M  V30 27 1 27 28
M  V30 28 1 28 29
M  V30 29 1 29 30
M  V30 30 1 30 31
M  V30 31 1 31 32
M  V30 32 1 32 33
M  V30 33 2 33 34
M  V30 34 1 34 35
M  V30 35 2 35 36
M  V30 36 1 36 37
M  V30 37 2 37 38
M  V30 38 1 38 39
M  V30 39 1 39 40
M  V30 40 1 38 41
M  V30 41 2 41 42
M  V30 42 1 42 43
M  V30 43 2 43 44
M  V30 44 1 44 45
M  V30 45 1 5 46
M  V30 46 2 46 47
M  V30 47 1 46 48
M  V30 48 1 48 49
M  V30 49 2 49 50
M  V30 50 2 49 51
M  V30 51 1 49 52
M  V30 52 1 52 53
M  V30 53 1 53 54
M  V30 54 1 5 3
M  V30 55 1 13 9
M  V30 56 1 27 25
M  V30 57 1 44 33
M  V30 58 1 54 52
M  V30 59 1 45 11
M  V30 60 1 42 35
M  V30 61 1 1 55
M  V30 62 1 1 56
M  V30 63 1 2 57
M  V30 64 1 3 58 CFG=1
M  V30 65 1 4 59
M  V30 66 1 4 60
M  V30 67 1 6 61
M  V30 68 1 9 62 CFG=3
M  V30 69 1 10 63
M  V30 70 1 10 64
M  V30 71 1 11 65 CFG=3
M  V30 72 1 12 66
M  V30 73 1 12 67
M  V30 74 1 16 68 CFG=1
M  V30 75 1 18 69
M  V30 76 1 18 70
M  V30 77 1 18 71
M  V30 78 1 19 72
M  V30 79 1 19 73
M  V30 80 1 19 74
M  V30 81 1 20 75
M  V30 82 1 20 76
M  V30 83 1 20 77
M  V30 84 1 21 78
M  V30 85 1 25 79 CFG=1
M  V30 86 1 26 80
M  V30 87 1 26 81
M  V30 88 1 27 82 CFG=3
M  V30 89 1 28 83
M  V30 90 1 28 84
M  V30 91 1 29 85
M  V30 92 1 29 86
M  V30 93 1 30 87
M  V30 94 1 30 88
M  V30 95 1 31 89
M  V30 96 1 31 90
M  V30 97 1 32 91
M  V30 98 1 32 92
M  V30 99 1 36 93
M  V30 100 1 37 94
M  V30 101 1 40 95
M  V30 102 1 40 96
M  V30 103 1 40 97
M  V30 104 1 41 98
M  V30 105 1 48 99
M  V30 106 1 52 100
M  V30 107 1 53 101
M  V30 108 1 53 102
M  V30 109 1 54 103
M  V30 110 1 54 104
M  V30 END BOND
M  V30 END CTAB
M  END
>  <Dataset>  (431) 
OralDrugs

>  <Ligand_Instance>  (431) 
nan

>  <PDB_ID>  (431) 
nan

>  <Standardized_SMILES>  (431) 
C=C[C@@H]1C[C@]1(NC(=O)[C@@H]1C[C@@H]2CN1C(=O)[C@H](C(C)(C)C)NC(=O)O[C@@H]1C[C@H]1CCCCCc1nc3ccc(OC)cc3nc1O2)C(=O)NS(=O)(=O)C1CC1

>  <Name>  (431) 
Grazoprevir Anhydrous

>  <Pocket>  (431) 
nan

>  <ATP_Site>  (431) 
nan

>  <Peripheral>  (431) 
nan

>  <Num_H_Atoms_ProtBoundConf>  (431) 
nan

>  <Num_Resolved_Atoms>  (431) 
nan

>  <Num_Not_Resolved_Atoms>  (431) 
nan

$$$$
CHEMBL562
     RDKit          3D

  0  0  0  0  0  0  0  0  0  0999 V3000
M  V30 BEGIN CTAB
M  V30 COUNTS 41 43 0 0 0
M  V30 BEGIN ATOM
M  V30 1 C -1.143969 -4.321136 0.086298 0
M  V30 2 O -0.079902 -3.399148 0.252705 0
M  V30 3 C 0.265302 -2.475721 -0.719547 0
M  V30 4 C 0.745133 -2.911159 -1.865795 0
M  V30 5 C 1.145156 -2.036007 -2.969187 0
M  V30 6 O 1.792351 -2.394819 -3.981930 0
M  V30 7 C 0.760274 -0.593570 -2.901863 0
M  V30 8 C -0.361180 -0.388990 -1.902238 0 CFG=1
M  V30 9 C -1.646622 -0.988966 -2.367566 0
M  V30 10 C 0.143911 -1.004758 -0.591990 0 CFG=2
M  V30 11 O 1.386522 -0.368006 -0.353244 0
M  V30 12 C 1.358695 0.146445 0.935417 0
M  V30 13 C 2.412573 0.736168 1.640419 0
M  V30 14 Cl 4.006527 0.890288 0.886946 0
M  V30 15 C 2.249104 1.217174 2.943036 0
M  V30 16 O 3.348484 1.788491 3.570283 0
M  V30 17 C 3.266067 2.292592 4.872202 0
M  V30 18 C 1.009723 1.097220 3.528612 0
M  V30 19 C -0.034539 0.516978 2.840163 0
M  V30 20 O -1.307462 0.366871 3.375227 0
M  V30 21 C -1.520531 0.837092 4.686505 0
M  V30 22 C 0.130446 0.043629 1.555349 0
M  V30 23 C -0.708741 -0.604311 0.554057 0
M  V30 24 O -1.949193 -0.786053 0.659596 0
M  V30 25 H -1.273766 -4.980717 0.964825 0
M  V30 26 H -2.070470 -3.685996 0.035766 0
M  V30 27 H -1.077037 -4.875018 -0.863698 0
M  V30 28 H 0.897469 -3.971790 -2.119597 0
M  V30 29 H 1.661851 -0.063198 -2.492218 0
M  V30 30 H 0.504595 -0.217503 -3.899261 0
M  V30 31 H -0.454145 0.688242 -1.718592 0
M  V30 32 H -2.187356 -1.533529 -1.565064 0
M  V30 33 H -2.247267 -0.193700 -2.855088 0
M  V30 34 H -1.407028 -1.739728 -3.167360 0
M  V30 35 H 2.852669 3.341594 4.895200 0
M  V30 36 H 4.301417 2.314814 5.318189 0
M  V30 37 H 2.613369 1.701854 5.551221 0
M  V30 38 H 0.859794 1.459423 4.528574 0
M  V30 39 H -2.576252 0.757153 5.000317 0
M  V30 40 H -1.230327 1.917861 4.762901 0
M  V30 41 H -0.882809 0.323880 5.445515 0
M  V30 END ATOM
M  V30 BEGIN BOND
M  V30 1 1 1 2
M  V30 2 1 2 3
M  V30 3 2 3 4
M  V30 4 1 4 5
M  V30 5 2 5 6
M  V30 6 1 5 7
M  V30 7 1 7 8
M  V30 8 1 8 9
M  V30 9 1 8 10
M  V30 10 1 10 11 CFG=1
M  V30 11 1 11 12
M  V30 12 2 12 13
M  V30 13 1 13 14
M  V30 14 1 13 15
M  V30 15 1 15 16
M  V30 16 1 16 17
M  V30 17 2 15 18
M  V30 18 1 18 19
M  V30 19 1 19 20
M  V30 20 1 20 21
M  V30 21 2 19 22
M  V30 22 1 22 23
M  V30 23 2 23 24
M  V30 24 1 10 3
M  V30 25 1 22 12
M  V30 26 1 23 10
M  V30 27 1 1 25
M  V30 28 1 1 26
M  V30 29 1 1 27
M  V30 30 1 4 28
M  V30 31 1 7 29
M  V30 32 1 7 30
M  V30 33 1 8 31 CFG=1
M  V30 34 1 9 32
M  V30 35 1 9 33
M  V30 36 1 9 34
M  V30 37 1 17 35
M  V30 38 1 17 36
M  V30 39 1 17 37
M  V30 40 1 18 38
M  V30 41 1 21 39
M  V30 42 1 21 40
M  V30 43 1 21 41
M  V30 END BOND
M  V30 END CTAB
M  END
>  <Dataset>  (432) 
OralDrugs

>  <Ligand_Instance>  (432) 
nan

>  <PDB_ID>  (432) 
nan

>  <Standardized_SMILES>  (432) 
COC1=CC(=O)C[C@@H](C)[C@]12Oc1c(Cl)c(OC)cc(OC)c1C2=O

>  <Name>  (432) 
Griseofulvin

>  <Pocket>  (432) 
nan

>  <ATP_Site>  (432) 
nan

>  <Peripheral>  (432) 
nan

>  <Num_H_Atoms_ProtBoundConf>  (432) 
nan

>  <Num_Resolved_Atoms>  (432) 
nan

>  <Num_Not_Resolved_Atoms>  (432) 
nan

$$$$
CHEMBL980
     RDKit          3D

  0  0  0  0  0  0  0  0  0  0999 V3000
M  V30 BEGIN CTAB
M  V30 COUNTS 28 28 0 0 0
M  V30 BEGIN ATOM
M  V30 1 C 1.872762 0.672387 3.923599 0
M  V30 2 O 1.380282 0.613072 2.601614 0
M  V30 3 C 0.307726 -0.233572 2.356042 0
M  V30 4 C -0.178985 -0.948444 3.458368 0
M  V30 5 C -1.256837 -1.835222 3.343699 0
M  V30 6 C -1.846503 -2.000895 2.110347 0
M  V30 7 C -1.338597 -1.280487 1.055637 0
M  V30 8 C -0.287705 -0.396698 1.093256 0
M  V30 9 O 0.338652 0.382815 0.173755 0
M  V30 10 C 0.022764 0.438025 -1.180211 0
M  V30 11 C 0.218404 -0.824481 -1.960918 0
M  V30 12 O -0.135724 -0.674246 -3.307669 0
M  V30 13 C 1.743484 -1.053559 -1.984410 0
M  V30 14 O 2.140850 -1.208021 -0.669333 0
M  V30 15 H 1.024507 0.980916 4.564182 0
M  V30 16 H 2.716509 1.364886 4.034381 0
M  V30 17 H 2.168668 -0.357376 4.226728 0
M  V30 18 H 0.212084 -0.886662 4.454148 0
M  V30 19 H -1.638970 -2.389706 4.182824 0
M  V30 20 H -2.677445 -2.655645 1.916102 0
M  V30 21 H -1.793489 -1.380625 0.094014 0
M  V30 22 H -1.075539 0.691517 -1.296252 0
M  V30 23 H 0.532994 1.312277 -1.665043 0
M  V30 24 H -0.251201 -1.705019 -1.554614 0
M  V30 25 H -0.696247 -1.439951 -3.590191 0
M  V30 26 H 2.195282 -0.125524 -2.370917 0
M  V30 27 H 1.961942 -1.924503 -2.620339 0
M  V30 28 H 2.545937 -0.388244 -0.286190 0
M  V30 END ATOM
M  V30 BEGIN BOND
M  V30 1 1 1 2
M  V30 2 1 2 3
M  V30 3 2 3 4
M  V30 4 1 4 5
M  V30 5 2 5 6
M  V30 6 1 6 7
M  V30 7 2 7 8
M  V30 8 1 8 9
M  V30 9 1 9 10
M  V30 10 1 10 11
M  V30 11 1 11 12
M  V30 12 1 11 13
M  V30 13 1 13 14
M  V30 14 1 8 3
M  V30 15 1 1 15
M  V30 16 1 1 16
M  V30 17 1 1 17
M  V30 18 1 4 18
M  V30 19 1 5 19
M  V30 20 1 6 20
M  V30 21 1 7 21
M  V30 22 1 10 22
M  V30 23 1 10 23
M  V30 24 1 11 24
M  V30 25 1 12 25
M  V30 26 1 13 26
M  V30 27 1 13 27
M  V30 28 1 14 28
M  V30 END BOND
M  V30 END CTAB
M  END
>  <Dataset>  (433) 
OralDrugs

>  <Ligand_Instance>  (433) 
nan

>  <PDB_ID>  (433) 
nan

>  <Standardized_SMILES>  (433) 
COc1ccccc1OCC(O)CO

>  <Name>  (433) 
Guaifenesin

>  <Pocket>  (433) 
nan

>  <ATP_Site>  (433) 
nan

>  <Peripheral>  (433) 
nan

>  <Num_H_Atoms_ProtBoundConf>  (433) 
nan

>  <Num_Resolved_Atoms>  (433) 
nan

>  <Num_Not_Resolved_Atoms>  (433) 
nan

$$$$
CHEMBL420
     RDKit          3D

  0  0  0  0  0  0  0  0  0  0999 V3000
M  V30 BEGIN CTAB
M  V30 COUNTS 22 22 0 0 0
M  V30 BEGIN ATOM
M  V30 1 N -0.365395 -1.409430 3.773666 0
M  V30 2 C 0.743336 -2.044254 3.483692 0
M  V30 3 N 0.944696 -3.193156 4.298143 0
M  V30 4 N 1.555955 -1.521246 2.442096 0
M  V30 5 N 1.124073 -0.366381 1.766734 0
M  V30 6 C 0.880162 -0.336274 0.513301 0
M  V30 7 C 0.430501 0.808572 -0.270520 0
M  V30 8 C 0.198833 0.718187 -1.627913 0
M  V30 9 Cl 0.454367 -0.818088 -2.424167 0
M  V30 10 C -0.228926 1.834119 -2.335888 0
M  V30 11 C -0.440894 3.067003 -1.733552 0
M  V30 12 C -0.209362 3.171347 -0.357299 0
M  V30 13 C 0.214643 2.040934 0.310394 0
M  V30 14 Cl 0.503207 2.185193 2.045483 0
M  V30 15 H -0.995771 -1.754018 4.530411 0
M  V30 16 H 1.499118 -3.041682 5.185102 0
M  V30 17 H 0.663171 -4.206883 4.230833 0
M  V30 18 H 2.419447 -2.084102 2.294718 0
M  V30 19 H 1.029998 -1.272691 -0.003330 0
M  V30 20 H -0.394459 1.693942 -3.411756 0
M  V30 21 H -0.774398 3.902561 -2.333830 0
M  V30 22 H -0.365777 4.118766 0.139941 0
M  V30 END ATOM
M  V30 BEGIN BOND
M  V30 1 2 1 2 CFG=2
M  V30 2 1 2 3
M  V30 3 1 2 4
M  V30 4 1 4 5
M  V30 5 2 5 6
M  V30 6 1 6 7
M  V30 7 2 7 8
M  V30 8 1 8 9
M  V30 9 1 8 10
M  V30 10 2 10 11
M  V30 11 1 11 12
M  V30 12 2 12 13
M  V30 13 1 13 14
M  V30 14 1 13 7
M  V30 15 1 1 15
M  V30 16 1 3 16
M  V30 17 1 3 17
M  V30 18 1 4 18
M  V30 19 1 6 19
M  V30 20 1 10 20
M  V30 21 1 11 21
M  V30 22 1 12 22
M  V30 END BOND
M  V30 END CTAB
M  END
>  <Dataset>  (434) 
OralDrugs

>  <Ligand_Instance>  (434) 
nan

>  <PDB_ID>  (434) 
nan

>  <Standardized_SMILES>  (434) 
N=C(N)N/N=C/c1c(Cl)cccc1Cl

>  <Name>  (434) 
Guanabenz

>  <Pocket>  (434) 
nan

>  <ATP_Site>  (434) 
nan

>  <Peripheral>  (434) 
nan

>  <Num_H_Atoms_ProtBoundConf>  (434) 
nan

>  <Num_Resolved_Atoms>  (434) 
nan

>  <Num_Not_Resolved_Atoms>  (434) 
nan

$$$$
CHEMBL1037
     RDKit          3D

  0  0  0  0  0  0  0  0  0  0999 V3000
M  V30 BEGIN CTAB
M  V30 COUNTS 34 35 0 0 0
M  V30 BEGIN ATOM
M  V30 1 N 2.063069 -2.455590 4.658440 0
M  V30 2 C 1.142649 -2.669190 3.753172 0
M  V30 3 N 0.309035 -3.801116 4.002803 0
M  V30 4 N 0.943899 -1.855039 2.577307 0
M  V30 5 C 1.509068 -0.534489 2.637592 0
M  V30 6 C 1.283042 0.281358 1.399892 0
M  V30 7 C 1.815691 -0.466781 0.216965 0
M  V30 8 O 0.985864 -0.088408 -0.829326 0
M  V30 9 C -0.201956 0.362925 -0.268144 0
M  V30 10 C -1.220495 -0.733485 -0.535094 0
M  V30 11 C -1.326785 -0.804190 -2.063925 0
M  V30 12 C -2.198657 0.380363 -2.463797 0
M  V30 13 C -1.997045 1.553180 -1.552912 0
M  V30 14 C -0.611744 1.618408 -0.960466 0
M  V30 15 O -0.033548 0.487539 1.094468 0
M  V30 16 H 2.719835 -1.638169 4.546530 0
M  V30 17 H -0.294816 -3.535786 4.811231 0
M  V30 18 H 0.359969 -4.669288 3.445478 0
M  V30 19 H 0.403466 -2.348864 1.825249 0
M  V30 20 H 2.610591 -0.677170 2.750430 0
M  V30 21 H 1.202394 -0.004273 3.566593 0
M  V30 22 H 1.798180 1.252538 1.561888 0
M  V30 23 H 1.745733 -1.563928 0.331288 0
M  V30 24 H 2.877809 -0.170236 -0.024417 0
M  V30 25 H -0.818900 -1.691368 -0.149251 0
M  V30 26 H -2.217756 -0.475696 -0.148362 0
M  V30 27 H -1.758020 -1.750874 -2.408504 0
M  V30 28 H -0.337176 -0.630788 -2.525259 0
M  V30 29 H -3.247169 0.025650 -2.365535 0
M  V30 30 H -2.051503 0.609722 -3.525772 0
M  V30 31 H -2.144139 2.476965 -2.149977 0
M  V30 32 H -2.755187 1.557590 -0.754342 0
M  V30 33 H 0.086770 1.938931 -1.763890 0
M  V30 34 H -0.643777 2.476076 -0.232108 0
M  V30 END ATOM
M  V30 BEGIN BOND
M  V30 1 2 1 2 CFG=2
M  V30 2 1 2 3
M  V30 3 1 2 4
M  V30 4 1 4 5
M  V30 5 1 5 6
M  V30 6 1 6 7
M  V30 7 1 7 8
M  V30 8 1 8 9
M  V30 9 1 9 10
M  V30 10 1 10 11
M  V30 11 1 11 12
M  V30 12 1 12 13
M  V30 13 1 13 14
M  V30 14 1 9 15
M  V30 15 1 15 6
M  V30 16 1 14 9
M  V30 17 1 1 16
M  V30 18 1 3 17
M  V30 19 1 3 18
M  V30 20 1 4 19
M  V30 21 1 5 20
M  V30 22 1 5 21
M  V30 23 1 6 22
M  V30 24 1 7 23
M  V30 25 1 7 24
M  V30 26 1 10 25
M  V30 27 1 10 26
M  V30 28 1 11 27
M  V30 29 1 11 28
M  V30 30 1 12 29
M  V30 31 1 12 30
M  V30 32 1 13 31
M  V30 33 1 13 32
M  V30 34 1 14 33
M  V30 35 1 14 34
M  V30 END BOND
M  V30 END CTAB
M  END
>  <Dataset>  (435) 
OralDrugs

>  <Ligand_Instance>  (435) 
nan

>  <PDB_ID>  (435) 
nan

>  <Standardized_SMILES>  (435) 
N=C(N)NCC1COC2(CCCCC2)O1

>  <Name>  (435) 
Guanadrel

>  <Pocket>  (435) 
nan

>  <ATP_Site>  (435) 
nan

>  <Peripheral>  (435) 
nan

>  <Num_H_Atoms_ProtBoundConf>  (435) 
nan

>  <Num_Resolved_Atoms>  (435) 
nan

>  <Num_Not_Resolved_Atoms>  (435) 
nan

$$$$
CHEMBL765
     RDKit          3D

  0  0  0  0  0  0  0  0  0  0999 V3000
M  V30 BEGIN CTAB
M  V30 COUNTS 36 36 0 0 0
M  V30 BEGIN ATOM
M  V30 1 N -1.348280 -1.475598 4.245334 0
M  V30 2 C -0.197531 -1.818922 3.767803 0
M  V30 3 N 0.104857 -2.974614 4.541269 0
M  V30 4 N 0.602571 -1.220202 2.727527 0
M  V30 5 C 0.212059 0.147832 2.486902 0
M  V30 6 C 0.980746 0.833167 1.422466 0
M  V30 7 N 0.948143 0.322084 0.124034 0
M  V30 8 C 1.550341 -0.904546 -0.201427 0
M  V30 9 C 0.466424 -1.932927 -0.443924 0
M  V30 10 C -0.027259 -1.920774 -1.865356 0
M  V30 11 C -0.243376 -0.532605 -2.407333 0
M  V30 12 C -1.033912 0.351419 -1.511195 0
M  V30 13 C -0.306390 1.671672 -1.359802 0
M  V30 14 C 1.088149 1.366302 -0.851512 0
M  V30 15 H -1.912751 -0.669577 3.941692 0
M  V30 16 H 0.311113 -3.977441 4.717794 0
M  V30 17 H 0.234009 -3.038807 5.580224 0
M  V30 18 H 1.259957 -1.986922 2.441249 0
M  V30 19 H 0.336650 0.704777 3.461261 0
M  V30 20 H -0.887015 0.142864 2.321376 0
M  V30 21 H 2.036819 0.991557 1.796562 0
M  V30 22 H 0.592728 1.895096 1.361181 0
M  V30 23 H 2.334396 -1.289463 0.444182 0
M  V30 24 H 2.040326 -0.768616 -1.216966 0
M  V30 25 H -0.409698 -1.828794 0.203579 0
M  V30 26 H 0.904431 -2.935992 -0.261836 0
M  V30 27 H 0.736458 -2.406888 -2.505523 0
M  V30 28 H -0.951610 -2.535231 -1.898561 0
M  V30 29 H 0.716237 -0.142161 -2.755962 0
M  V30 30 H -0.857640 -0.664274 -3.346251 0
M  V30 31 H -2.046629 0.589255 -1.895024 0
M  V30 32 H -1.186906 -0.074735 -0.488064 0
M  V30 33 H -0.315770 2.262227 -2.288156 0
M  V30 34 H -0.797081 2.229532 -0.510027 0
M  V30 35 H 1.820577 1.167462 -1.646730 0
M  V30 36 H 1.458522 2.296970 -0.335802 0
M  V30 END ATOM
M  V30 BEGIN BOND
M  V30 1 2 1 2 CFG=2
M  V30 2 1 2 3
M  V30 3 1 2 4
M  V30 4 1 4 5
M  V30 5 1 5 6
M  V30 6 1 6 7
M  V30 7 1 7 8
M  V30 8 1 8 9
M  V30 9 1 9 10
M  V30 10 1 10 11
M  V30 11 1 11 12
M  V30 12 1 12 13
M  V30 13 1 13 14
M  V30 14 1 14 7
M  V30 15 1 1 15
M  V30 16 1 3 16
M  V30 17 1 3 17
M  V30 18 1 4 18
M  V30 19 1 5 19
M  V30 20 1 5 20
M  V30 21 1 6 21
M  V30 22 1 6 22
M  V30 23 1 8 23
M  V30 24 1 8 24
M  V30 25 1 9 25
M  V30 26 1 9 26
M  V30 27 1 10 27
M  V30 28 1 10 28
M  V30 29 1 11 29
M  V30 30 1 11 30
M  V30 31 1 12 31
M  V30 32 1 12 32
M  V30 33 1 13 33
M  V30 34 1 13 34
M  V30 35 1 14 35
M  V30 36 1 14 36
M  V30 END BOND
M  V30 END CTAB
M  END
>  <Dataset>  (436) 
OralDrugs

>  <Ligand_Instance>  (436) 
nan

>  <PDB_ID>  (436) 
nan

>  <Standardized_SMILES>  (436) 
N=C(N)NCCN1CCCCCCC1

>  <Name>  (436) 
Guanethidine

>  <Pocket>  (436) 
nan

>  <ATP_Site>  (436) 
nan

>  <Peripheral>  (436) 
nan

>  <Num_H_Atoms_ProtBoundConf>  (436) 
nan

>  <Num_Resolved_Atoms>  (436) 
nan

>  <Num_Not_Resolved_Atoms>  (436) 
nan

$$$$
CHEMBL862
     RDKit          3D

  0  0  0  0  0  0  0  0  0  0999 V3000
M  V30 BEGIN CTAB
M  V30 COUNTS 24 24 0 0 0
M  V30 BEGIN ATOM
M  V30 1 N 2.534473 -2.392830 -0.015566 0
M  V30 2 C 3.061991 -1.918428 1.029493 0
M  V30 3 N 4.276070 -2.556761 1.484442 0
M  V30 4 N 2.734759 -0.863155 1.901443 0
M  V30 5 C 1.616824 -0.074802 1.700773 0
M  V30 6 O 0.890765 -0.353308 0.672406 0
M  V30 7 C 0.624788 0.984294 1.933667 0
M  V30 8 C -0.445679 0.985462 0.901150 0
M  V30 9 C -1.338901 -0.063608 1.139725 0
M  V30 10 Cl -1.245371 -1.230409 2.453970 0
M  V30 11 C -2.430527 -0.255031 0.285463 0
M  V30 12 C -2.622645 0.589920 -0.788034 0
M  V30 13 C -1.734594 1.607458 -0.998289 0
M  V30 14 C -0.648839 1.821895 -0.173788 0
M  V30 15 Cl 0.562210 3.073966 -0.316593 0
M  V30 16 H 1.690183 -2.065246 -0.462338 0
M  V30 17 H 5.309133 -2.636043 1.368375 0
M  V30 18 H 3.999453 -3.211454 2.251141 0
M  V30 19 H 3.081548 -0.404559 2.755766 0
M  V30 20 H 0.204762 0.896158 2.969532 0
M  V30 21 H 1.175525 1.955126 1.915503 0
M  V30 22 H -3.159544 -1.052026 0.418289 0
M  V30 23 H -3.458109 0.464609 -1.465789 0
M  V30 24 H -1.826136 2.290520 -1.806727 0
M  V30 END ATOM
M  V30 BEGIN BOND
M  V30 1 2 1 2 CFG=2
M  V30 2 1 2 3
M  V30 3 1 2 4
M  V30 4 1 4 5
M  V30 5 2 5 6
M  V30 6 1 5 7
M  V30 7 1 7 8
M  V30 8 2 8 9
M  V30 9 1 9 10
M  V30 10 1 9 11
M  V30 11 2 11 12
M  V30 12 1 12 13
M  V30 13 2 13 14
M  V30 14 1 14 15
M  V30 15 1 14 8
M  V30 16 1 1 16
M  V30 17 1 3 17
M  V30 18 1 3 18
M  V30 19 1 4 19
M  V30 20 1 7 20
M  V30 21 1 7 21
M  V30 22 1 11 22
M  V30 23 1 12 23
M  V30 24 1 13 24
M  V30 END BOND
M  V30 END CTAB
M  END
>  <Dataset>  (437) 
OralDrugs

>  <Ligand_Instance>  (437) 
nan

>  <PDB_ID>  (437) 
nan

>  <Standardized_SMILES>  (437) 
N=C(N)NC(=O)Cc1c(Cl)cccc1Cl

>  <Name>  (437) 
Guanfacine

>  <Pocket>  (437) 
nan

>  <ATP_Site>  (437) 
nan

>  <Peripheral>  (437) 
nan

>  <Num_H_Atoms_ProtBoundConf>  (437) 
nan

>  <Num_Resolved_Atoms>  (437) 
nan

>  <Num_Not_Resolved_Atoms>  (437) 
nan

$$$$
CHEMBL821
     RDKit          3D

  0  0  0  0  0  0  0  0  0  0999 V3000
M  V30 BEGIN CTAB
M  V30 COUNTS 9 8 0 0 0
M  V30 BEGIN ATOM
M  V30 1 N 1.911530 -0.459436 3.041141 0
M  V30 2 C 1.564440 -1.071144 1.959123 0
M  V30 3 N 1.733399 -2.463737 1.870402 0
M  V30 4 N 1.018377 -0.376704 0.860040 0
M  V30 5 H 1.805157 0.579329 3.155984 0
M  V30 6 H 2.498257 -3.012432 1.428679 0
M  V30 7 H 0.946152 -2.955374 2.332411 0
M  V30 8 H 0.910937 -0.810229 -0.067018 0
M  V30 9 H 0.673632 0.608787 0.848168 0
M  V30 END ATOM
M  V30 BEGIN BOND
M  V30 1 2 1 2 CFG=2
M  V30 2 1 2 3
M  V30 3 1 2 4
M  V30 4 1 1 5
M  V30 5 1 3 6
M  V30 6 1 3 7
M  V30 7 1 4 8
M  V30 8 1 4 9
M  V30 END BOND
M  V30 END CTAB
M  END
>  <Dataset>  (438) 
OralDrugs

>  <Ligand_Instance>  (438) 
nan

>  <PDB_ID>  (438) 
nan

>  <Standardized_SMILES>  (438) 
N=C(N)N

>  <Name>  (438) 
Guanidine

>  <Pocket>  (438) 
nan

>  <ATP_Site>  (438) 
nan

>  <Peripheral>  (438) 
nan

>  <Num_H_Atoms_ProtBoundConf>  (438) 
nan

>  <Num_Resolved_Atoms>  (438) 
nan

>  <Num_Not_Resolved_Atoms>  (438) 
nan

$$$$
CHEMBL970
     RDKit          3D

  0  0  0  0  0  0  0  0  0  0999 V3000
M  V30 BEGIN CTAB
M  V30 COUNTS 36 38 0 0 0
M  V30 BEGIN ATOM
M  V30 1 O -1.184126 -3.382425 2.601142 0
M  V30 2 C -1.077707 -2.665504 1.542602 0
M  V30 3 C -0.481684 -3.218037 0.255486 0
M  V30 4 N 0.662283 -2.409307 -0.128103 0
M  V30 5 C 0.744540 -1.103540 -0.277631 0
M  V30 6 C 2.036840 -0.575455 -0.665563 0
M  V30 7 C 2.972558 -1.568068 -1.006347 0
M  V30 8 C 4.284412 -1.337436 -1.341118 0
M  V30 9 C 4.761925 -0.046448 -1.356497 0
M  V30 10 C 3.884886 0.963892 -1.028751 0
M  V30 11 C 2.588145 0.646098 -0.704766 0
M  V30 12 C -0.397663 -0.186581 -0.130791 0
M  V30 13 C -0.292769 0.827818 -1.091531 0
M  V30 14 C -1.281829 1.785523 -1.016529 0
M  V30 15 Cl -1.172135 3.066953 -2.202716 0
M  V30 16 C -2.291040 1.714314 -0.048691 0
M  V30 17 C -2.366747 0.700542 0.878894 0
M  V30 18 C -1.411644 -0.252730 0.830043 0
M  V30 19 N -1.598130 -1.321064 1.789220 0
M  V30 20 C -2.309717 -0.989635 2.985873 0
M  V30 21 C -1.411036 -0.475845 4.090852 0
M  V30 22 F -2.097745 -0.155049 5.248282 0
M  V30 23 F -0.571700 0.544932 3.665658 0
M  V30 24 F -0.507037 -1.470274 4.498172 0
M  V30 25 H -1.281510 -3.145768 -0.499985 0
M  V30 26 H -0.123326 -4.214211 0.474409 0
M  V30 27 H 2.740196 -2.642501 -1.038576 0
M  V30 28 H 4.996087 -2.095296 -1.600621 0
M  V30 29 H 5.766025 0.221341 -1.605557 0
M  V30 30 H 4.191863 1.993505 -1.020824 0
M  V30 31 H 1.952115 1.441686 -0.405312 0
M  V30 32 H 0.494384 0.783082 -1.828034 0
M  V30 33 H -3.037736 2.488327 -0.033247 0
M  V30 34 H -3.107427 0.628047 1.610873 0
M  V30 35 H -2.544506 -2.054812 3.404495 0
M  V30 36 H -3.315379 -0.622944 2.950172 0
M  V30 END ATOM
M  V30 BEGIN BOND
M  V30 1 2 1 2
M  V30 2 1 2 3
M  V30 3 1 3 4
M  V30 4 2 4 5
M  V30 5 1 5 6
M  V30 6 2 6 7
M  V30 7 1 7 8
M  V30 8 2 8 9
M  V30 9 1 9 10
M  V30 10 2 10 11
M  V30 11 1 5 12
M  V30 12 2 12 13
M  V30 13 1 13 14
M  V30 14 1 14 15
M  V30 15 2 14 16
M  V30 16 1 16 17
M  V30 17 2 17 18
M  V30 18 1 18 19
M  V30 19 1 19 20
M  V30 20 1 20 21
M  V30 21 1 21 22
M  V30 22 1 21 23
M  V30 23 1 21 24
M  V30 24 1 19 2
M  V30 25 1 11 6
M  V30 26 1 18 12
M  V30 27 1 3 25
M  V30 28 1 3 26
M  V30 29 1 7 27
M  V30 30 1 8 28
M  V30 31 1 9 29
M  V30 32 1 10 30
M  V30 33 1 11 31
M  V30 34 1 13 32
M  V30 35 1 16 33
M  V30 36 1 17 34
M  V30 37 1 20 35
M  V30 38 1 20 36
M  V30 END BOND
M  V30 END CTAB
M  END
>  <Dataset>  (439) 
OralDrugs

>  <Ligand_Instance>  (439) 
nan

>  <PDB_ID>  (439) 
nan

>  <Standardized_SMILES>  (439) 
O=C1CN=C(c2ccccc2)c2cc(Cl)ccc2N1CC(F)(F)F

>  <Name>  (439) 
Halazepam

>  <Pocket>  (439) 
nan

>  <ATP_Site>  (439) 
nan

>  <Peripheral>  (439) 
nan

>  <Num_H_Atoms_ProtBoundConf>  (439) 
nan

>  <Num_Resolved_Atoms>  (439) 
nan

>  <Num_Not_Resolved_Atoms>  (439) 
nan

$$$$
CHEMBL1107
     RDKit          3D

  0  0  0  0  0  0  0  0  0  0999 V3000
M  V30 BEGIN CTAB
M  V30 COUNTS 63 65 0 0 0
M  V30 BEGIN ATOM
M  V30 1 C 6.205473 -0.721832 2.719018 0
M  V30 2 C 4.782611 -1.201261 2.296151 0
M  V30 3 C 4.519896 -0.749871 0.918265 0
M  V30 4 C 3.260155 -1.087079 0.228919 0
M  V30 5 N 2.021210 -0.693871 0.823767 0
M  V30 6 C 1.587647 -1.470675 1.946765 0
M  V30 7 C 0.526123 -0.885842 2.812804 0
M  V30 8 C 0.843314 0.353024 3.556571 0
M  V30 9 C 1.211172 1.523758 2.713045 0
M  V30 10 C 0.974354 -0.702539 -0.194837 0
M  V30 11 C 1.053802 0.387596 -1.202707 0
M  V30 12 C -0.120907 0.249428 -2.210420 0
M  V30 13 O -0.149052 1.248087 -3.138595 0
M  V30 14 C -1.382978 0.055555 -1.533428 0
M  V30 15 C -1.756449 0.979730 -0.548392 0
M  V30 16 C -2.927072 0.792342 0.186738 0
M  V30 17 C -3.291768 1.701836 1.170029 0
M  V30 18 Cl -2.312783 3.089285 1.502012 0
M  V30 19 C -4.433557 1.574901 1.944640 0
M  V30 20 C -5.271362 0.475774 1.732071 0
M  V30 21 Cl -6.711829 0.296130 2.693228 0
M  V30 22 C -4.882954 -0.428901 0.734237 0
M  V30 23 C -3.746836 -0.294833 -0.028751 0
M  V30 24 C -3.420796 -1.225040 -0.986686 0
M  V30 25 C -4.229900 -2.307461 -1.227693 0
M  V30 26 C -3.909673 -3.232726 -2.196773 0
M  V30 27 C -4.774160 -4.427216 -2.482347 0
M  V30 28 F -4.184869 -5.232304 -3.438880 0
M  V30 29 F -6.004272 -4.035874 -2.921020 0
M  V30 30 F -4.881082 -5.171454 -1.326094 0
M  V30 31 C -2.753013 -3.048931 -2.926125 0
M  V30 32 C -1.950710 -1.940808 -2.660422 0
M  V30 33 C -2.254132 -1.003063 -1.690423 0
M  V30 34 H 6.136308 0.358506 2.941974 0
M  V30 35 H 6.423186 -1.241827 3.662859 0
M  V30 36 H 6.920195 -0.978275 1.934415 0
M  V30 37 H 4.761278 -2.286006 2.487318 0
M  V30 38 H 4.149867 -0.713029 3.078076 0
M  V30 39 H 4.744136 0.357524 0.890195 0
M  V30 40 H 5.392421 -1.162581 0.297077 0
M  V30 41 H 3.257503 -2.191222 -0.026324 0
M  V30 42 H 3.313939 -0.623809 -0.802600 0
M  V30 43 H 2.388471 -1.954753 2.534263 0
M  V30 44 H 1.054240 -2.429464 1.520137 0
M  V30 45 H -0.393361 -0.683775 2.214632 0
M  V30 46 H 0.200412 -1.722003 3.499070 0
M  V30 47 H -0.117635 0.628448 4.110811 0
M  V30 48 H 1.600000 0.160455 4.367870 0
M  V30 49 H 0.339686 2.260285 2.707465 0
M  V30 50 H 1.454989 1.357120 1.676004 0
M  V30 51 H 2.025338 2.082844 3.259118 0
M  V30 52 H 1.014836 -1.709386 -0.705131 0
M  V30 53 H -0.040827 -0.691763 0.274977 0
M  V30 54 H 1.943949 0.237539 -1.843761 0
M  V30 55 H 1.128201 1.390881 -0.800792 0
M  V30 56 H 0.150363 -0.743292 -2.695593 0
M  V30 57 H -0.934408 1.847324 -3.129905 0
M  V30 58 H -1.146279 1.839566 -0.351513 0
M  V30 59 H -4.704527 2.291221 2.707663 0
M  V30 60 H -5.588336 -1.235693 0.648819 0
M  V30 61 H -5.139800 -2.514265 -0.700006 0
M  V30 62 H -2.526401 -3.795315 -3.688090 0
M  V30 63 H -1.098812 -1.933691 -3.313404 0
M  V30 END ATOM
M  V30 BEGIN BOND
M  V30 1 1 1 2
M  V30 2 1 2 3
M  V30 3 1 3 4
M  V30 4 1 4 5
M  V30 5 1 5 6
M  V30 6 1 6 7
M  V30 7 1 7 8
M  V30 8 1 8 9
M  V30 9 1 5 10
M  V30 10 1 10 11
M  V30 11 1 11 12
M  V30 12 1 12 13
M  V30 13 1 12 14
M  V30 14 2 14 15
M  V30 15 1 15 16
M  V30 16 2 16 17
M  V30 17 1 17 18
M  V30 18 1 17 19
M  V30 19 2 19 20
M  V30 20 1 20 21
M  V30 21 1 20 22
M  V30 22 2 22 23
M  V30 23 1 23 24
M  V30 24 2 24 25
M  V30 25 1 25 26
M  V30 26 1 26 27
M  V30 27 1 27 28
M  V30 28 1 27 29
M  V30 29 1 27 30
M  V30 30 2 26 31
M  V30 31 1 31 32
M  V30 32 2 32 33
M  V30 33 1 33 14
M  V30 34 1 23 16
M  V30 35 1 33 24
M  V30 36 1 1 34
M  V30 37 1 1 35
M  V30 38 1 1 36
M  V30 39 1 2 37
M  V30 40 1 2 38
M  V30 41 1 3 39
M  V30 42 1 3 40
M  V30 43 1 4 41
M  V30 44 1 4 42
M  V30 45 1 6 43
M  V30 46 1 6 44
M  V30 47 1 7 45
M  V30 48 1 7 46
M  V30 49 1 8 47
M  V30 50 1 8 48
M  V30 51 1 9 49
M  V30 52 1 9 50
M  V30 53 1 9 51
M  V30 54 1 10 52
M  V30 55 1 10 53
M  V30 56 1 11 54
M  V30 57 1 11 55
M  V30 58 1 12 56
M  V30 59 1 13 57
M  V30 60 1 15 58
M  V30 61 1 19 59
M  V30 62 1 22 60
M  V30 63 1 25 61
M  V30 64 1 31 62
M  V30 65 1 32 63
M  V30 END BOND
M  V30 END CTAB
M  END
>  <Dataset>  (440) 
OralDrugs

>  <Ligand_Instance>  (440) 
nan

>  <PDB_ID>  (440) 
nan

>  <Standardized_SMILES>  (440) 
CCCCN(CCCC)CCC(O)c1cc2c(Cl)cc(Cl)cc2c2cc(C(F)(F)F)ccc12

>  <Name>  (440) 
Halofantrine

>  <Pocket>  (440) 
nan

>  <ATP_Site>  (440) 
nan

>  <Peripheral>  (440) 
nan

>  <Num_H_Atoms_ProtBoundConf>  (440) 
nan

>  <Num_Resolved_Atoms>  (440) 
nan

>  <Num_Not_Resolved_Atoms>  (440) 
nan

$$$$
CHEMBL54
     RDKit          3D

  0  0  0  0  0  0  0  0  0  0999 V3000
M  V30 BEGIN CTAB
M  V30 COUNTS 49 51 0 0 0
M  V30 BEGIN ATOM
M  V30 1 O -1.298730 -2.857075 2.495241 0
M  V30 2 C -2.055861 -2.757718 1.512225 0
M  V30 3 C -1.271073 -2.317385 0.313994 0
M  V30 4 C -0.976709 -0.838361 0.368659 0
M  V30 5 C -0.188817 -0.299815 -0.768163 0
M  V30 6 N 1.103994 -0.789595 -0.983370 0
M  V30 7 C 1.835647 -0.296857 -2.086995 0
M  V30 8 C 2.763320 0.816043 -1.657997 0
M  V30 9 C 3.258229 0.667044 -0.263284 0
M  V30 10 O 4.632553 0.972344 -0.254625 0
M  V30 11 C 2.662094 1.579082 0.736097 0
M  V30 12 C 1.696965 2.531275 0.644757 0
M  V30 13 C 1.250008 3.310039 1.679623 0
M  V30 14 C 1.816628 3.124255 2.924390 0
M  V30 15 Cl 1.219094 4.134650 4.216466 0
M  V30 16 C 2.814720 2.157042 3.072927 0
M  V30 17 C 3.244872 1.382678 1.996866 0
M  V30 18 C 3.174483 -0.776027 0.214009 0
M  V30 19 C 1.823801 -1.397744 0.029021 0
M  V30 20 C -3.475850 -3.054541 1.638808 0
M  V30 21 C -3.887352 -3.438748 2.891263 0
M  V30 22 C -5.228144 -3.733923 3.073361 0
M  V30 23 C -6.120638 -3.642924 2.023656 0
M  V30 24 F -7.438711 -3.943163 2.246196 0
M  V30 25 C -5.727846 -3.255435 0.743479 0
M  V30 26 C -4.386041 -2.971874 0.609454 0
M  V30 27 H -2.000123 -2.531939 -0.530747 0
M  V30 28 H -0.346819 -2.872864 0.197581 0
M  V30 29 H -1.983162 -0.324677 0.354687 0
M  V30 30 H -0.557064 -0.554513 1.368232 0
M  V30 31 H -0.792480 -0.500144 -1.705898 0
M  V30 32 H -0.172699 0.803254 -0.704461 0
M  V30 33 H 1.200919 -0.012117 -2.946092 0
M  V30 34 H 2.492256 -1.117928 -2.441578 0
M  V30 35 H 2.268773 1.777064 -1.799075 0
M  V30 36 H 3.658801 0.852654 -2.347971 0
M  V30 37 H 5.172405 0.147971 -0.310218 0
M  V30 38 H 1.280725 2.652767 -0.315918 0
M  V30 39 H 0.472888 4.033761 1.468015 0
M  V30 40 H 3.158444 2.131010 4.102392 0
M  V30 41 H 4.021423 0.721416 2.383603 0
M  V30 42 H 3.912590 -1.413994 -0.357901 0
M  V30 43 H 3.517265 -0.859840 1.264170 0
M  V30 44 H 1.968236 -2.484955 -0.237468 0
M  V30 45 H 1.348513 -1.440728 1.027295 0
M  V30 46 H -3.244644 -3.528338 3.745988 0
M  V30 47 H -5.574587 -4.042945 4.068311 0
M  V30 48 H -6.418032 -3.180347 -0.085837 0
M  V30 49 H -4.031360 -2.665284 -0.367569 0
M  V30 END ATOM
M  V30 BEGIN BOND
M  V30 1 2 1 2
M  V30 2 1 2 3
M  V30 3 1 3 4
M  V30 4 1 4 5
M  V30 5 1 5 6
M  V30 6 1 6 7
M  V30 7 1 7 8
M  V30 8 1 8 9
M  V30 9 1 9 10
M  V30 10 1 9 11
M  V30 11 2 11 12
M  V30 12 1 12 13
M  V30 13 2 13 14
M  V30 14 1 14 15
M  V30 15 1 14 16
M  V30 16 2 16 17
M  V30 17 1 9 18
M  V30 18 1 18 19
M  V30 19 1 2 20
M  V30 20 2 20 21
M  V30 21 1 21 22
M  V30 22 2 22 23
M  V30 23 1 23 24
M  V30 24 1 23 25
M  V30 25 2 25 26
M  V30 26 1 19 6
M  V30 27 1 26 20
M  V30 28 1 17 11
M  V30 29 1 3 27
M  V30 30 1 3 28
M  V30 31 1 4 29
M  V30 32 1 4 30
M  V30 33 1 5 31
M  V30 34 1 5 32
M  V30 35 1 7 33
M  V30 36 1 7 34
M  V30 37 1 8 35
M  V30 38 1 8 36
M  V30 39 1 10 37
M  V30 40 1 12 38
M  V30 41 1 13 39
M  V30 42 1 16 40
M  V30 43 1 17 41
M  V30 44 1 18 42
M  V30 45 1 18 43
M  V30 46 1 19 44
M  V30 47 1 19 45
M  V30 48 1 21 46
M  V30 49 1 22 47
M  V30 50 1 25 48
M  V30 51 1 26 49
M  V30 END BOND
M  V30 END CTAB
M  END
>  <Dataset>  (441) 
OralDrugs

>  <Ligand_Instance>  (441) 
nan

>  <PDB_ID>  (441) 
nan

>  <Standardized_SMILES>  (441) 
O=C(CCCN1CCC(O)(c2ccc(Cl)cc2)CC1)c1ccc(F)cc1

>  <Name>  (441) 
Haloperidol

>  <Pocket>  (441) 
nan

>  <ATP_Site>  (441) 
nan

>  <Peripheral>  (441) 
nan

>  <Num_H_Atoms_ProtBoundConf>  (441) 
nan

>  <Num_Resolved_Atoms>  (441) 
nan

>  <Num_Not_Resolved_Atoms>  (441) 
nan

$$$$
CHEMBL1201325
     RDKit          3D

  0  0  0  0  0  0  0  0  0  0999 V3000
M  V30 BEGIN CTAB
M  V30 COUNTS 56 58 0 0 0
M  V30 BEGIN ATOM
M  V30 1 C 1.261762 -5.272919 -0.520549 0
M  V30 2 N 1.570306 -4.270699 0.506581 0 CHG=1 VAL=4
M  V30 3 C 2.279282 -5.016224 1.553774 0
M  V30 4 C 2.379265 -3.221147 0.014070 0
M  V30 5 C 1.823424 -1.838430 0.025904 0
M  V30 6 N 0.873664 -1.537457 1.033296 0
M  V30 7 C -0.285778 -0.826375 0.551664 0
M  V30 8 C -0.057373 0.574199 0.117007 0
M  V30 9 O 0.894390 0.620755 -0.923095 0
M  V30 10 C 0.422101 1.493067 1.170465 0
M  V30 11 C 0.684768 2.828558 0.898594 0
M  V30 12 C 1.129105 3.697767 1.877106 0
M  V30 13 C 1.332464 3.274977 3.174519 0
M  V30 14 C 1.084437 1.960082 3.482036 0
M  V30 15 C 0.642722 1.124534 2.480826 0
M  V30 16 C -1.296595 1.196553 -0.503137 0
M  V30 17 C -2.477406 1.249814 0.407738 0
M  V30 18 C -3.723839 0.661554 -0.207170 0
M  V30 19 C -4.035027 1.159077 -1.580600 0
M  V30 20 C -2.789709 1.221440 -2.422153 0
M  V30 21 C -1.738775 0.382993 -1.727927 0
M  V30 22 C 0.464908 -2.644855 1.857627 0
M  V30 23 C 0.307114 -3.886133 1.051936 0
M  V30 24 H 1.114542 -6.265988 -0.020551 0
M  V30 25 H 2.096688 -5.383358 -1.226541 0
M  V30 26 H 0.306920 -4.993656 -1.020931 0
M  V30 27 H 3.271988 -5.254908 1.094069 0
M  V30 28 H 1.799289 -5.981376 1.788763 0
M  V30 29 H 2.501360 -4.413846 2.435566 0
M  V30 30 H 3.385308 -3.258985 0.502791 0
M  V30 31 H 2.624642 -3.460914 -1.064170 0
M  V30 32 H 1.335714 -1.631126 -0.966573 0
M  V30 33 H 2.672841 -1.131806 0.100557 0
M  V30 34 H -0.611528 -1.396656 -0.367622 0
M  V30 35 H -1.138990 -0.940665 1.251326 0
M  V30 36 H 1.555478 1.318383 -0.783301 0
M  V30 37 H 0.552804 3.247186 -0.089586 0
M  V30 38 H 1.347643 4.744076 1.723520 0
M  V30 39 H 1.679547 3.930965 3.959919 0
M  V30 40 H 1.239120 1.604186 4.495188 0
M  V30 41 H 0.457197 0.098283 2.755593 0
M  V30 42 H -1.103678 2.218430 -0.883310 0
M  V30 43 H -2.733183 2.284604 0.731158 0
M  V30 44 H -2.325398 0.696906 1.367468 0
M  V30 45 H -3.764262 -0.441856 -0.092325 0
M  V30 46 H -4.572739 1.029784 0.445803 0
M  V30 47 H -4.685102 0.377966 -2.067931 0
M  V30 48 H -4.622082 2.102072 -1.597399 0
M  V30 49 H -2.987231 0.884078 -3.459663 0
M  V30 50 H -2.438485 2.289654 -2.425880 0
M  V30 51 H -2.236465 -0.570742 -1.422732 0
M  V30 52 H -0.892364 0.196683 -2.417709 0
M  V30 53 H -0.552183 -2.375165 2.268781 0
M  V30 54 H 1.117129 -2.773205 2.727190 0
M  V30 55 H -0.024030 -4.701762 1.753468 0
M  V30 56 H -0.492194 -3.784239 0.309398 0
M  V30 END ATOM
M  V30 BEGIN BOND
M  V30 1 1 1 2
M  V30 2 1 2 3
M  V30 3 1 2 4
M  V30 4 1 4 5
M  V30 5 1 5 6
M  V30 6 1 6 7
M  V30 7 1 7 8
M  V30 8 1 8 9
M  V30 9 1 8 10
M  V30 10 2 10 11
M  V30 11 1 11 12
M  V30 12 2 12 13
M  V30 13 1 13 14
M  V30 14 2 14 15
M  V30 15 1 8 16
M  V30 16 1 16 17
M  V30 17 1 17 18
M  V30 18 1 18 19
M  V30 19 1 19 20
M  V30 20 1 20 21
M  V30 21 1 6 22
M  V30 22 1 22 23
M  V30 23 1 23 2
M  V30 24 1 15 10
M  V30 25 1 21 16
M  V30 26 1 1 24
M  V30 27 1 1 25
M  V30 28 1 1 26
M  V30 29 1 3 27
M  V30 30 1 3 28
M  V30 31 1 3 29
M  V30 32 1 4 30
M  V30 33 1 4 31
M  V30 34 1 5 32
M  V30 35 1 5 33
M  V30 36 1 7 34
M  V30 37 1 7 35
M  V30 38 1 9 36
M  V30 39 1 11 37
M  V30 40 1 12 38
M  V30 41 1 13 39
M  V30 42 1 14 40
M  V30 43 1 15 41
M  V30 44 1 16 42
M  V30 45 1 17 43
M  V30 46 1 17 44
M  V30 47 1 18 45
M  V30 48 1 18 46
M  V30 49 1 19 47
M  V30 50 1 19 48
M  V30 51 1 20 49
M  V30 52 1 20 50
M  V30 53 1 21 51
M  V30 54 1 21 52
M  V30 55 1 22 53
M  V30 56 1 22 54
M  V30 57 1 23 55
M  V30 58 1 23 56
M  V30 END BOND
M  V30 END CTAB
M  END
>  <Dataset>  (442) 
OralDrugs

>  <Ligand_Instance>  (442) 
nan

>  <PDB_ID>  (442) 
nan

>  <Standardized_SMILES>  (442) 
C[N+]1(C)CCN(CC(O)(c2ccccc2)C2CCCCC2)CC1

>  <Name>  (442) 
Hexocyclium

>  <Pocket>  (442) 
nan

>  <ATP_Site>  (442) 
nan

>  <Peripheral>  (442) 
nan

>  <Num_H_Atoms_ProtBoundConf>  (442) 
nan

>  <Num_Resolved_Atoms>  (442) 
nan

>  <Num_Not_Resolved_Atoms>  (442) 
nan

$$$$
CHEMBL1200851
     RDKit          3D

  0  0  0  0  0  0  0  0  0  0999 V3000
M  V30 BEGIN CTAB
M  V30 COUNTS 45 47 0 0 0
M  V30 BEGIN ATOM
M  V30 1 C 1.469258 -0.831496 -4.971737 0
M  V30 2 N 1.204709 -0.691683 -3.542870 0 CHG=1 VAL=4
M  V30 3 C 2.140580 0.221549 -2.994650 0
M  V30 4 C 1.208385 -2.021810 -2.984416 0 CFG=2
M  V30 5 C 0.176377 -2.693258 -3.872826 0
M  V30 6 C -0.874083 -1.581437 -3.936253 0
M  V30 7 C -0.186058 -0.334910 -3.406486 0 CFG=1
M  V30 8 C -0.620317 -0.147123 -1.985611 0
M  V30 9 C 0.254323 -0.840800 -0.989925 0 CFG=1
M  V30 10 O -0.515797 -1.074113 0.172277 0
M  V30 11 C -0.265910 -0.508498 1.391986 0
M  V30 12 O 0.671920 0.304038 1.699070 0
M  V30 13 C -1.058519 -0.735988 2.629234 0
M  V30 14 O -0.476284 0.024160 3.653494 0
M  V30 15 C -2.476550 -0.259600 2.442786 0
M  V30 16 C -3.608773 -1.033312 2.297595 0
M  V30 17 C -4.822849 -0.410144 2.137252 0
M  V30 18 C -4.946482 0.958218 2.116742 0
M  V30 19 C -3.830226 1.728876 2.259861 0
M  V30 20 C -2.606130 1.119633 2.421466 0
M  V30 21 C 0.845516 -2.109966 -1.544467 0
M  V30 22 H 1.971060 0.120226 -5.314456 0
M  V30 23 H 0.576819 -0.929467 -5.586072 0
M  V30 24 H 2.251831 -1.611643 -5.156842 0
M  V30 25 H 2.820773 -0.277181 -2.275695 0
M  V30 26 H 1.683401 1.166878 -2.579047 0
M  V30 27 H 2.840869 0.627559 -3.783486 0
M  V30 28 H 2.177860 -2.558224 -3.188839 0
M  V30 29 H -0.227726 -3.616808 -3.428074 0
M  V30 30 H 0.645391 -2.833382 -4.856820 0
M  V30 31 H -1.724833 -1.889530 -3.282103 0
M  V30 32 H -1.289083 -1.463983 -4.943226 0
M  V30 33 H -0.374692 0.560683 -4.029877 0
M  V30 34 H -1.661966 -0.500167 -1.860673 0
M  V30 35 H -0.620135 0.955394 -1.768692 0
M  V30 36 H 1.055960 -0.124194 -0.655729 0
M  V30 37 H -1.052673 -1.788922 2.972042 0
M  V30 38 H 0.077701 -0.544955 4.261086 0
M  V30 39 H -3.414238 -2.095945 2.326366 0
M  V30 40 H -5.670354 -1.063787 2.028809 0
M  V30 41 H -5.922223 1.428631 1.987974 0
M  V30 42 H -3.940209 2.810710 2.242040 0
M  V30 43 H -1.763407 1.801880 2.529186 0
M  V30 44 H 0.071910 -2.906751 -1.428986 0
M  V30 45 H 1.782291 -2.371436 -0.972040 0
M  V30 END ATOM
M  V30 BEGIN BOND
M  V30 1 1 1 2
M  V30 2 1 2 3
M  V30 3 1 2 4
M  V30 4 1 4 5
M  V30 5 1 5 6
M  V30 6 1 6 7
M  V30 7 1 7 8
M  V30 8 1 8 9
M  V30 9 1 9 10
M  V30 10 1 10 11
M  V30 11 2 11 12
M  V30 12 1 11 13
M  V30 13 1 13 14
M  V30 14 1 13 15
M  V30 15 2 15 16
M  V30 16 1 16 17
M  V30 17 2 17 18
M  V30 18 1 18 19
M  V30 19 2 19 20
M  V30 20 1 9 21
M  V30 21 1 7 2
M  V30 22 1 20 15
M  V30 23 1 21 4
M  V30 24 1 1 22
M  V30 25 1 1 23
M  V30 26 1 1 24
M  V30 27 1 3 25
M  V30 28 1 3 26
M  V30 29 1 3 27
M  V30 30 1 4 28 CFG=1
M  V30 31 1 5 29
M  V30 32 1 5 30
M  V30 33 1 6 31
M  V30 34 1 6 32
M  V30 35 1 7 33 CFG=3
M  V30 36 1 8 34
M  V30 37 1 8 35
M  V30 38 1 9 36 CFG=1
M  V30 39 1 13 37
M  V30 40 1 14 38
M  V30 41 1 16 39
M  V30 42 1 17 40
M  V30 43 1 18 41
M  V30 44 1 19 42
M  V30 45 1 20 43
M  V30 46 1 21 44
M  V30 47 1 21 45
M  V30 END BOND
M  V30 END CTAB
M  END
>  <Dataset>  (443) 
OralDrugs

>  <Ligand_Instance>  (443) 
nan

>  <PDB_ID>  (443) 
nan

>  <Standardized_SMILES>  (443) 
C[N+]1(C)[C@@H]2CC[C@H]1C[C@@H](OC(=O)C(O)c1ccccc1)C2

>  <Name>  (443) 
Homatropine Methylbromide

>  <Pocket>  (443) 
nan

>  <ATP_Site>  (443) 
nan

>  <Peripheral>  (443) 
nan

>  <Num_H_Atoms_ProtBoundConf>  (443) 
nan

>  <Num_Resolved_Atoms>  (443) 
nan

>  <Num_Not_Resolved_Atoms>  (443) 
nan

$$$$
CHEMBL276832
     RDKit          3D

  0  0  0  0  0  0  0  0  0  0999 V3000
M  V30 BEGIN CTAB
M  V30 COUNTS 20 21 0 0 0
M  V30 BEGIN ATOM
M  V30 1 N -1.172799 0.665998 3.039035 0
M  V30 2 N -0.557007 -0.579359 2.779005 0
M  V30 3 C 0.614059 -0.248947 2.041777 0
M  V30 4 N 1.638663 0.172287 2.783721 0
M  V30 5 N 2.790959 0.530225 2.199261 0
M  V30 6 C 2.862350 0.442848 0.834890 0
M  V30 7 C 1.789771 -0.000246 0.057703 0
M  V30 8 C 1.869152 -0.086440 -1.311197 0
M  V30 9 C 0.758379 -0.539933 -2.025157 0
M  V30 10 C -0.424211 -0.906556 -1.405304 0
M  V30 11 C -0.497691 -0.814394 -0.020808 0
M  V30 12 C 0.606129 -0.366948 0.658763 0
M  V30 13 H -1.835637 0.956346 2.316854 0
M  V30 14 H -0.490344 1.413040 3.309109 0
M  V30 15 H -1.163619 -1.296428 3.207017 0
M  V30 16 H 3.787937 0.732205 0.338533 0
M  V30 17 H 2.785559 0.196801 -1.824613 0
M  V30 18 H 0.879189 -0.586220 -3.082344 0
M  V30 19 H -1.268641 -1.258991 -1.996994 0
M  V30 20 H -1.412103 -1.096406 0.494183 0
M  V30 END ATOM
M  V30 BEGIN BOND
M  V30 1 1 1 2
M  V30 2 1 2 3
M  V30 3 2 3 4
M  V30 4 1 4 5
M  V30 5 2 5 6
M  V30 6 1 6 7
M  V30 7 2 7 8
M  V30 8 1 8 9
M  V30 9 2 9 10
M  V30 10 1 10 11
M  V30 11 2 11 12
M  V30 12 1 12 3
M  V30 13 1 12 7
M  V30 14 1 1 13
M  V30 15 1 1 14
M  V30 16 1 2 15
M  V30 17 1 6 16
M  V30 18 1 8 17
M  V30 19 1 9 18
M  V30 20 1 10 19
M  V30 21 1 11 20
M  V30 END BOND
M  V30 END CTAB
M  END
>  <Dataset>  (444) 
OralDrugs

>  <Ligand_Instance>  (444) 
nan

>  <PDB_ID>  (444) 
nan

>  <Standardized_SMILES>  (444) 
NNc1nncc2ccccc12

>  <Name>  (444) 
Hydralazine

>  <Pocket>  (444) 
nan

>  <ATP_Site>  (444) 
nan

>  <Peripheral>  (444) 
nan

>  <Num_H_Atoms_ProtBoundConf>  (444) 
nan

>  <Num_Resolved_Atoms>  (444) 
nan

>  <Num_Not_Resolved_Atoms>  (444) 
nan

$$$$
CHEMBL435
     RDKit          3D

  0  0  0  0  0  0  0  0  0  0999 V3000
M  V30 BEGIN CTAB
M  V30 COUNTS 25 26 0 0 0
M  V30 BEGIN ATOM
M  V30 1 N 1.610193 -3.982398 -0.912712 0
M  V30 2 S 2.074606 -3.197546 0.559172 0
M  V30 3 O 1.683333 -4.005810 1.757183 0
M  V30 4 O 3.571604 -3.063439 0.564351 0
M  V30 5 C 1.394536 -1.584260 0.608007 0
M  V30 6 C 0.532173 -1.230064 1.627594 0
M  V30 7 C 0.013131 0.045731 1.639705 0
M  V30 8 C 0.381257 0.912980 0.627675 0
M  V30 9 C 1.246200 0.564938 -0.398903 0
M  V30 10 C 1.772950 -0.730656 -0.410611 0
M  V30 11 Cl 2.858078 -1.183660 -1.689285 0
M  V30 12 N -0.156893 2.228618 0.638273 0
M  V30 13 C -1.445548 2.604622 1.111308 0
M  V30 14 N -2.076434 1.763731 2.052769 0
M  V30 15 S -1.091620 0.642641 2.867173 0
M  V30 16 O -0.230742 1.367602 3.868004 0
M  V30 17 O -1.891294 -0.442903 3.483067 0
M  V30 18 H 1.010630 -3.351564 -1.480746 0
M  V30 19 H 1.182182 -4.907493 -0.726191 0
M  V30 20 H 0.243122 -1.908143 2.420415 0
M  V30 21 H 1.535695 1.243947 -1.192193 0
M  V30 22 H 0.464689 2.994133 0.255349 0
M  V30 23 H -2.113894 2.635775 0.198883 0
M  V30 24 H -1.428253 3.664461 1.451312 0
M  V30 25 H -3.054253 1.514121 1.910363 0
M  V30 END ATOM
M  V30 BEGIN BOND
M  V30 1 1 1 2
M  V30 2 2 2 3
M  V30 3 2 2 4
M  V30 4 1 2 5
M  V30 5 2 5 6
M  V30 6 1 6 7
M  V30 7 2 7 8
M  V30 8 1 8 9
M  V30 9 2 9 10
M  V30 10 1 10 11
M  V30 11 1 8 12
M  V30 12 1 12 13
M  V30 13 1 13 14
M  V30 14 1 14 15
M  V30 15 2 15 16
M  V30 16 2 15 17
M  V30 17 1 10 5
M  V30 18 1 15 7
M  V30 19 1 1 18
M  V30 20 1 1 19
M  V30 21 1 6 20
M  V30 22 1 9 21
M  V30 23 1 12 22
M  V30 24 1 13 23
M  V30 25 1 13 24
M  V30 26 1 14 25
M  V30 END BOND
M  V30 END CTAB
M  END
>  <Dataset>  (445) 
OralDrugs

>  <Ligand_Instance>  (445) 
nan

>  <PDB_ID>  (445) 
nan

>  <Standardized_SMILES>  (445) 
NS(=O)(=O)c1cc2c(cc1Cl)NCNS2(=O)=O

>  <Name>  (445) 
Hydrochlorothiazide

>  <Pocket>  (445) 
nan

>  <ATP_Site>  (445) 
nan

>  <Peripheral>  (445) 
nan

>  <Num_H_Atoms_ProtBoundConf>  (445) 
nan

>  <Num_Resolved_Atoms>  (445) 
nan

>  <Num_Not_Resolved_Atoms>  (445) 
nan

$$$$
CHEMBL389621
     RDKit          3D

  0  0  0  0  0  0  0  0  0  0999 V3000
M  V30 BEGIN CTAB
M  V30 COUNTS 56 59 0 0 0
M  V30 BEGIN ATOM
M  V30 1 C 1.732719 1.227115 2.701956 0
M  V30 2 C 1.797639 -0.177170 2.081175 0 CFG=2
M  V30 3 C 1.926150 -1.057093 3.324476 0
M  V30 4 C 3.055582 -0.710320 4.220355 0
M  V30 5 C 4.324698 -0.441899 3.508229 0
M  V30 6 O 5.370590 -0.210214 4.123405 0
M  V30 7 C 4.238791 -0.473143 2.053344 0
M  V30 8 C 3.106229 -0.355474 1.379497 0
M  V30 9 C 3.091716 -0.395666 -0.090355 0
M  V30 10 C 2.084678 -1.447159 -0.523470 0
M  V30 11 C 0.764875 -0.831483 -0.150198 0 CFG=2
M  V30 12 C 0.606693 -0.570518 1.332703 0 CFG=2
M  V30 13 C -0.549576 0.428140 1.392405 0 CFG=1
M  V30 14 O -0.195816 1.708952 1.068354 0
M  V30 15 C -1.780332 -0.094315 0.738565 0
M  V30 16 C -1.593421 -0.614773 -0.656882 0 CFG=1
M  V30 17 C -1.453007 0.463541 -1.667318 0
M  V30 18 C -0.424047 -1.575036 -0.569861 0 CFG=1
M  V30 19 C -0.460613 -2.242317 -1.887365 0
M  V30 20 C -1.930754 -2.620300 -1.952232 0
M  V30 21 C -2.660266 -1.598203 -1.068141 0 CFG=1
M  V30 22 O -3.114996 -2.194012 0.093125 0
M  V30 23 C -3.737065 -1.005079 -1.908479 0
M  V30 24 O -4.479254 -0.455053 -2.740807 0
M  V30 25 C -5.138473 -1.151424 -1.356077 0
M  V30 26 O -5.978181 -0.536268 -2.284424 0
M  V30 27 H 2.588644 1.305731 3.435558 0
M  V30 28 H 1.923021 2.032421 1.997984 0
M  V30 29 H 0.844230 1.294291 3.326526 0
M  V30 30 H 1.882284 -2.130203 3.067851 0
M  V30 31 H 0.974695 -0.866626 3.890286 0
M  V30 32 H 2.821141 0.035308 5.012508 0
M  V30 33 H 3.268875 -1.647118 4.818134 0
M  V30 34 H 5.161544 -0.601417 1.467223 0
M  V30 35 H 2.699747 0.585597 -0.467999 0
M  V30 36 H 4.063621 -0.562181 -0.551872 0
M  V30 37 H 2.281302 -2.429494 -0.085767 0
M  V30 38 H 2.088747 -1.551405 -1.608885 0
M  V30 39 H 0.752005 0.134298 -0.737963 0
M  V30 40 H 0.132535 -1.498691 1.775440 0
M  V30 41 H -0.811972 0.450833 2.492994 0
M  V30 42 H 0.292298 1.858813 0.248029 0
M  V30 43 H -2.539747 0.692651 0.765961 0
M  V30 44 H -2.178393 -0.946443 1.354245 0
M  V30 45 H -0.539015 0.411670 -2.290749 0
M  V30 46 H -2.348882 0.424145 -2.355964 0
M  V30 47 H -1.531648 1.504771 -1.268423 0
M  V30 48 H -0.707183 -2.324886 0.195499 0
M  V30 49 H 0.194940 -3.136411 -1.865731 0
M  V30 50 H -0.128255 -1.620651 -2.735160 0
M  V30 51 H -2.025928 -3.611755 -1.454853 0
M  V30 52 H -2.327493 -2.641020 -2.984118 0
M  V30 53 H -3.674364 -2.978941 -0.051780 0
M  V30 54 H -5.253210 -0.597681 -0.401394 0
M  V30 55 H -5.391049 -2.223961 -1.233594 0
M  V30 56 H -6.493545 -1.238338 -2.793121 0
M  V30 END ATOM
M  V30 BEGIN BOND
M  V30 1 1 2 1 CFG=1
M  V30 2 1 2 3
M  V30 3 1 3 4
M  V30 4 1 4 5
M  V30 5 2 5 6
M  V30 6 1 5 7
M  V30 7 2 7 8
M  V30 8 1 8 9
M  V30 9 1 9 10
M  V30 10 1 10 11
M  V30 11 1 11 12
M  V30 12 1 12 13
M  V30 13 1 13 14
M  V30 14 1 13 15
M  V30 15 1 15 16
M  V30 16 1 16 17 CFG=3
M  V30 17 1 16 18
M  V30 18 1 18 19
M  V30 19 1 19 20
M  V30 20 1 20 21
M  V30 21 1 21 22 CFG=1
M  V30 22 1 21 23
M  V30 23 2 23 24
M  V30 24 1 23 25
M  V30 25 1 25 26
M  V30 26 1 8 2
M  V30 27 1 18 11
M  V30 28 1 12 2
M  V30 29 1 21 16
M  V30 30 1 1 27
M  V30 31 1 1 28
M  V30 32 1 1 29
M  V30 33 1 3 30
M  V30 34 1 3 31
M  V30 35 1 4 32
M  V30 36 1 4 33
M  V30 37 1 7 34
M  V30 38 1 9 35
M  V30 39 1 9 36
M  V30 40 1 10 37
M  V30 41 1 10 38
M  V30 42 1 11 39 CFG=3
M  V30 43 1 12 40 CFG=1
M  V30 44 1 13 41 CFG=1
M  V30 45 1 14 42
M  V30 46 1 15 43
M  V30 47 1 15 44
M  V30 48 1 17 45
M  V30 49 1 17 46
M  V30 50 1 17 47
M  V30 51 1 18 48 CFG=1
M  V30 52 1 19 49
M  V30 53 1 19 50
M  V30 54 1 20 51
M  V30 55 1 20 52
M  V30 56 1 22 53
M  V30 57 1 25 54
M  V30 58 1 25 55
M  V30 59 1 26 56
M  V30 END BOND
M  V30 END CTAB
M  END
>  <Dataset>  (446) 
OralDrugs

>  <Ligand_Instance>  (446) 
nan

>  <PDB_ID>  (446) 
nan

>  <Standardized_SMILES>  (446) 
C[C@]12CCC(=O)C=C1CC[C@@H]1[C@@H]2[C@@H](O)C[C@@]2(C)[C@H]1CC[C@]2(O)C(=O)CO

>  <Name>  (446) 
Hydrocortisone

>  <Pocket>  (446) 
nan

>  <ATP_Site>  (446) 
nan

>  <Peripheral>  (446) 
nan

>  <Num_H_Atoms_ProtBoundConf>  (446) 
nan

>  <Num_Resolved_Atoms>  (446) 
nan

>  <Num_Not_Resolved_Atoms>  (446) 
nan

$$$$
CHEMBL1549
     RDKit          3D

  0  0  0  0  0  0  0  0  0  0999 V3000
M  V30 BEGIN CTAB
M  V30 COUNTS 77 81 0 0 0
M  V30 BEGIN ATOM
M  V30 1 C -0.305294 -3.684907 4.899468 0
M  V30 2 C 0.353698 -2.494731 4.240557 0 CFG=2
M  V30 3 C 1.805309 -2.847400 4.025693 0
M  V30 4 C 2.616776 -2.960678 5.270164 0
M  V30 5 C 2.004176 -2.275733 6.433603 0
M  V30 6 O 2.246197 -2.572886 7.630784 0
M  V30 7 C 1.066197 -1.194105 6.167345 0
M  V30 8 C 0.247868 -1.271211 5.105440 0
M  V30 9 C -0.729934 -0.201530 4.776266 0
M  V30 10 C -1.963772 -0.873860 4.277306 0
M  V30 11 C -1.682023 -1.645509 3.038391 0 CFG=2
M  V30 12 C -0.244744 -2.148193 2.931678 0 CFG=2
M  V30 13 C -0.263101 -3.261668 1.937497 0 CFG=1
M  V30 14 O -1.081662 -4.320465 2.329123 0
M  V30 15 C -0.708011 -2.778923 0.584755 0
M  V30 16 C -1.865336 -1.872128 0.604394 0 CFG=1
M  V30 17 C -3.148149 -2.673366 0.551082 0
M  V30 18 C -1.882512 -0.898374 1.783622 0 CFG=1
M  V30 19 C -3.162552 -0.219242 1.531529 0
M  V30 20 C -3.074078 0.038214 0.019021 0
M  V30 21 C -1.944830 -0.849300 -0.489953 0 CFG=1
M  V30 22 O -0.821674 -0.034276 -0.549275 0
M  V30 23 C -2.264557 -1.411320 -1.827013 0
M  V30 24 O -3.173276 -2.160930 -2.166033 0
M  V30 25 C -1.453188 -1.119038 -3.065241 0
M  V30 26 O -0.406009 -0.267093 -2.713717 0
M  V30 27 C 0.517445 0.181979 -3.630643 0
M  V30 28 O 0.122058 -0.367746 -4.689829 0
M  V30 29 C 1.586182 1.090230 -3.111268 0
M  V30 30 C 2.487968 1.451272 -4.248814 0
M  V30 31 C 1.766208 2.148762 -5.358330 0
M  V30 32 C 2.742817 2.478449 -6.482949 0
M  V30 33 C 3.297806 3.849424 -6.127202 0
M  V30 34 C 2.230887 4.519410 -5.290299 0
M  V30 35 C 1.178701 3.471279 -4.984665 0
M  V30 36 H -0.139915 -3.675883 6.000626 0
M  V30 37 H -1.373984 -3.743082 4.677661 0
M  V30 38 H 0.182833 -4.591231 4.449306 0
M  V30 39 H 2.204611 -2.114634 3.293471 0
M  V30 40 H 1.823818 -3.859024 3.540105 0
M  V30 41 H 3.582067 -2.408444 5.066966 0
M  V30 42 H 2.906720 -3.965181 5.573612 0
M  V30 43 H 1.016523 -0.311881 6.823337 0
M  V30 44 H -0.292168 0.431027 3.989533 0
M  V30 45 H -1.011769 0.365202 5.687778 0
M  V30 46 H -2.797194 -0.164491 4.096014 0
M  V30 47 H -2.322832 -1.548052 5.109533 0
M  V30 48 H -2.292190 -2.586212 3.109442 0
M  V30 49 H 0.380293 -1.329811 2.491302 0
M  V30 50 H 0.749204 -3.702581 1.813843 0
M  V30 51 H -1.103997 -5.023038 1.633818 0
M  V30 52 H 0.186948 -2.434712 0.037023 0
M  V30 53 H -1.023880 -3.712628 0.031419 0
M  V30 54 H -2.998298 -3.624480 0.001599 0
M  V30 55 H -3.960382 -2.128059 0.034064 0
M  V30 56 H -3.540011 -2.950619 1.535754 0
M  V30 57 H -1.007332 -0.236472 1.617437 0
M  V30 58 H -3.141180 0.775338 2.058078 0
M  V30 59 H -4.017239 -0.841880 1.797842 0
M  V30 60 H -2.860272 1.124536 -0.154671 0
M  V30 61 H -4.029826 -0.151209 -0.481228 0
M  V30 62 H -0.006064 -0.411647 -0.180575 0
M  V30 63 H -2.135125 -0.532089 -3.738884 0
M  V30 64 H -1.113874 -2.035156 -3.556758 0
M  V30 65 H 1.169872 1.975785 -2.639060 0
M  V30 66 H 2.218998 0.559296 -2.359268 0
M  V30 67 H 3.314748 2.140470 -3.924606 0
M  V30 68 H 2.960736 0.508430 -4.610144 0
M  V30 69 H 0.989566 1.495141 -5.797965 0
M  V30 70 H 2.240396 2.557213 -7.456925 0
M  V30 71 H 3.593977 1.784882 -6.530233 0
M  V30 72 H 3.544267 4.428791 -7.016250 0
M  V30 73 H 4.209688 3.767935 -5.499250 0
M  V30 74 H 1.813713 5.387692 -5.839935 0
M  V30 75 H 2.643623 4.909852 -4.338895 0
M  V30 76 H 0.346958 3.671108 -5.694962 0
M  V30 77 H 0.854127 3.462403 -3.946767 0
M  V30 END ATOM
M  V30 BEGIN BOND
M  V30 1 1 2 1 CFG=1
M  V30 2 1 2 3
M  V30 3 1 3 4
M  V30 4 1 4 5
M  V30 5 2 5 6
M  V30 6 1 5 7
M  V30 7 2 7 8
M  V30 8 1 8 9
M  V30 9 1 9 10
M  V30 10 1 10 11
M  V30 11 1 11 12
M  V30 12 1 12 13
M  V30 13 1 13 14
M  V30 14 1 13 15
M  V30 15 1 15 16
M  V30 16 1 16 17 CFG=1
M  V30 17 1 16 18
M  V30 18 1 18 19
M  V30 19 1 19 20
M  V30 20 1 20 21
M  V30 21 1 21 22 CFG=3
M  V30 22 1 21 23
M  V30 23 2 23 24
M  V30 24 1 23 25
M  V30 25 1 25 26
M  V30 26 1 26 27
M  V30 27 2 27 28
M  V30 28 1 27 29
M  V30 29 1 29 30
M  V30 30 1 30 31
M  V30 31 1 31 32
M  V30 32 1 32 33
M  V30 33 1 33 34
M  V30 34 1 34 35
M  V30 35 1 8 2
M  V30 36 1 18 11
M  V30 37 1 35 31
M  V30 38 1 12 2
M  V30 39 1 21 16
M  V30 40 1 1 36
M  V30 41 1 1 37
M  V30 42 1 1 38
M  V30 43 1 3 39
M  V30 44 1 3 40
M  V30 45 1 4 41
M  V30 46 1 4 42
M  V30 47 1 7 43
M  V30 48 1 9 44
M  V30 49 1 9 45
M  V30 50 1 10 46
M  V30 51 1 10 47
M  V30 52 1 11 48 CFG=3
M  V30 53 1 12 49 CFG=3
M  V30 54 1 13 50 CFG=3
M  V30 55 1 14 51
M  V30 56 1 15 52
M  V30 57 1 15 53
M  V30 58 1 17 54
M  V30 59 1 17 55
M  V30 60 1 17 56
M  V30 61 1 18 57 CFG=3
M  V30 62 1 19 58
M  V30 63 1 19 59
M  V30 64 1 20 60
M  V30 65 1 20 61
M  V30 66 1 22 62
M  V30 67 1 25 63
M  V30 68 1 25 64
M  V30 69 1 29 65
M  V30 70 1 29 66
M  V30 71 1 30 67
M  V30 72 1 30 68
M  V30 73 1 31 69
M  V30 74 1 32 70
M  V30 75 1 32 71
M  V30 76 1 33 72
M  V30 77 1 33 73
M  V30 78 1 34 74
M  V30 79 1 34 75
M  V30 80 1 35 76
M  V30 81 1 35 77
M  V30 END BOND
M  V30 END CTAB
M  END
>  <Dataset>  (447) 
OralDrugs

>  <Ligand_Instance>  (447) 
nan

>  <PDB_ID>  (447) 
nan

>  <Standardized_SMILES>  (447) 
C[C@]12CCC(=O)C=C1CC[C@@H]1[C@@H]2[C@@H](O)C[C@@]2(C)[C@H]1CC[C@]2(O)C(=O)COC(=O)CCC1CCCC1

>  <Name>  (447) 
Hydrocortisone Cypionate

>  <Pocket>  (447) 
nan

>  <ATP_Site>  (447) 
nan

>  <Peripheral>  (447) 
nan

>  <Num_H_Atoms_ProtBoundConf>  (447) 
nan

>  <Num_Resolved_Atoms>  (447) 
nan

>  <Num_Not_Resolved_Atoms>  (447) 
nan

$$$$
CHEMBL1763
     RDKit          3D

  0  0  0  0  0  0  0  0  0  0999 V3000
M  V30 BEGIN CTAB
M  V30 COUNTS 28 29 0 0 0
M  V30 BEGIN ATOM
M  V30 1 N 3.460402 -0.234807 3.465490 0
M  V30 2 S 3.285903 -0.447675 1.798962 0
M  V30 3 O 3.818152 -1.853987 1.516592 0
M  V30 4 O 4.242481 0.420743 0.998653 0
M  V30 5 C 1.676871 -0.374379 1.183590 0
M  V30 6 C 1.085551 -1.475636 0.548514 0
M  V30 7 C -0.190047 -1.524633 0.026037 0
M  V30 8 C -0.973018 -0.393154 0.128452 0
M  V30 9 C -0.425074 0.708913 0.746570 0
M  V30 10 C 0.874625 0.744712 1.273683 0
M  V30 11 C 1.359740 1.963885 1.904653 0
M  V30 12 F 0.360941 2.950113 1.852475 0
M  V30 13 F 2.397241 2.456790 1.131111 0
M  V30 14 F 1.846031 1.834643 3.179362 0
M  V30 15 N -2.278660 -0.421815 -0.398353 0
M  V30 16 C -3.074162 -1.636102 -0.509932 0
M  V30 17 N -2.430069 -2.752508 -1.072973 0
M  V30 18 S -0.797543 -2.973559 -0.742041 0
M  V30 19 O -0.478470 -4.198155 0.078302 0
M  V30 20 O -0.034490 -3.117867 -2.051649 0
M  V30 21 H 4.066708 0.484551 3.820103 0
M  V30 22 H 2.669361 -0.584308 3.981883 0
M  V30 23 H 1.697565 -2.378584 0.461713 0
M  V30 24 H -1.064585 1.589496 0.814346 0
M  V30 25 H -2.688523 0.502900 -0.726984 0
M  V30 26 H -3.327931 -1.905135 0.557746 0
M  V30 27 H -4.024360 -1.405469 -0.997707 0
M  V30 28 H -2.849036 -3.231957 -1.865988 0
M  V30 END ATOM
M  V30 BEGIN BOND
M  V30 1 1 1 2
M  V30 2 2 2 3
M  V30 3 2 2 4
M  V30 4 1 2 5
M  V30 5 2 5 6
M  V30 6 1 6 7
M  V30 7 2 7 8
M  V30 8 1 8 9
M  V30 9 2 9 10
M  V30 10 1 10 11
M  V30 11 1 11 12
M  V30 12 1 11 13
M  V30 13 1 11 14
M  V30 14 1 8 15
M  V30 15 1 15 16
M  V30 16 1 16 17
M  V30 17 1 17 18
M  V30 18 2 18 19
M  V30 19 2 18 20
M  V30 20 1 10 5
M  V30 21 1 18 7
M  V30 22 1 1 21
M  V30 23 1 1 22
M  V30 24 1 6 23
M  V30 25 1 9 24
M  V30 26 1 15 25
M  V30 27 1 16 26
M  V30 28 1 16 27
M  V30 29 1 17 28
M  V30 END BOND
M  V30 END CTAB
M  END
>  <Dataset>  (448) 
OralDrugs

>  <Ligand_Instance>  (448) 
nan

>  <PDB_ID>  (448) 
nan

>  <Standardized_SMILES>  (448) 
NS(=O)(=O)c1cc2c(cc1C(F)(F)F)NCNS2(=O)=O

>  <Name>  (448) 
Hydroflumethiazide

>  <Pocket>  (448) 
nan

>  <ATP_Site>  (448) 
nan

>  <Peripheral>  (448) 
nan

>  <Num_H_Atoms_ProtBoundConf>  (448) 
nan

>  <Num_Resolved_Atoms>  (448) 
nan

>  <Num_Not_Resolved_Atoms>  (448) 
nan

$$$$
CHEMBL1237055
     RDKit          3D

  0  0  0  0  0  0  0  0  0  0999 V3000
M  V30 BEGIN CTAB
M  V30 COUNTS 40 44 0 0 0
M  V30 BEGIN ATOM
M  V30 1 C 2.594242 -0.675946 3.072335 0
M  V30 2 N 1.260489 -1.210406 3.050653 0
M  V30 3 C 0.305148 -0.228089 3.498544 0
M  V30 4 C 0.042622 0.732780 2.359275 0
M  V30 5 C -0.444946 0.012519 1.150458 0 CFG=2
M  V30 6 C 0.420918 0.159030 -0.047730 0
M  V30 7 C 1.498808 -0.657520 -0.239072 0
M  V30 8 C 2.192850 -0.383721 -1.395814 0
M  V30 9 C 1.813871 0.628934 -2.266705 0
M  V30 10 C 0.693446 1.418892 -1.992287 0
M  V30 11 O 0.230179 2.452963 -2.793525 0
M  V30 12 C -0.045419 1.186281 -0.836999 0
M  V30 13 O -1.176816 1.682006 -0.170694 0
M  V30 14 C -1.722240 0.638799 0.657250 0 CFG=1
M  V30 15 C -2.475236 -0.260558 -0.252343 0
M  V30 16 O -3.133744 0.281989 -1.130507 0
M  V30 17 C -2.407713 -1.720706 -0.074893 0
M  V30 18 C -1.011005 -2.212651 0.236672 0
M  V30 19 C -0.521888 -1.454565 1.429149 0 CFG=1
M  V30 20 C 0.887932 -1.871412 1.824789 0 CFG=1
M  V30 21 C 1.863731 -1.723894 0.708105 0
M  V30 22 H 2.667716 -0.116224 4.051636 0
M  V30 23 H 2.817343 0.082007 2.312549 0
M  V30 24 H 3.402689 -1.403697 3.101099 0
M  V30 25 H 0.797703 0.314063 4.342041 0
M  V30 26 H -0.594322 -0.677758 3.916141 0
M  V30 27 H -0.714567 1.463188 2.738816 0
M  V30 28 H 0.955629 1.283607 2.137401 0
M  V30 29 H 3.077041 -0.982882 -1.643849 0
M  V30 30 H 2.354679 0.852726 -3.181433 0
M  V30 31 H -0.098847 2.174024 -3.707670 0
M  V30 32 H -2.348404 1.089432 1.434151 0
M  V30 33 H -2.804260 -2.227984 -0.993181 0
M  V30 34 H -3.049108 -1.991183 0.781804 0
M  V30 35 H -0.347039 -2.242465 -0.624472 0
M  V30 36 H -1.153346 -3.286827 0.554738 0
M  V30 37 H -1.208687 -1.704954 2.264793 0
M  V30 38 H 0.774103 -2.959846 2.106847 0
M  V30 39 H 1.931413 -2.725089 0.188098 0
M  V30 40 H 2.878518 -1.583309 1.139657 0
M  V30 END ATOM
M  V30 BEGIN BOND
M  V30 1 1 1 2
M  V30 2 1 2 3
M  V30 3 1 3 4
M  V30 4 1 5 4 CFG=1
M  V30 5 1 5 6
M  V30 6 2 6 7
M  V30 7 1 7 8
M  V30 8 2 8 9
M  V30 9 1 9 10
M  V30 10 1 10 11
M  V30 11 2 10 12
M  V30 12 1 12 13
M  V30 13 1 13 14
M  V30 14 1 14 15
M  V30 15 2 15 16
M  V30 16 1 15 17
M  V30 17 1 17 18
M  V30 18 1 18 19
M  V30 19 1 19 20
M  V30 20 1 20 21
M  V30 21 1 20 2
M  V30 22 1 14 5
M  V30 23 1 19 5
M  V30 24 1 12 6
M  V30 25 1 21 7
M  V30 26 1 1 22
M  V30 27 1 1 23
M  V30 28 1 1 24
M  V30 29 1 3 25
M  V30 30 1 3 26
M  V30 31 1 4 27
M  V30 32 1 4 28
M  V30 33 1 8 29
M  V30 34 1 9 30
M  V30 35 1 11 31
M  V30 36 1 14 32 CFG=1
M  V30 37 1 17 33
M  V30 38 1 17 34
M  V30 39 1 18 35
M  V30 40 1 18 36
M  V30 41 1 19 37 CFG=1
M  V30 42 1 20 38 CFG=1
M  V30 43 1 21 39
M  V30 44 1 21 40
M  V30 END BOND
M  V30 END CTAB
M  END
>  <Dataset>  (449) 
OralDrugs

>  <Ligand_Instance>  (449) 
nan

>  <PDB_ID>  (449) 
nan

>  <Standardized_SMILES>  (449) 
CN1CC[C@]23c4c5ccc(O)c4O[C@H]2C(=O)CC[C@H]3[C@H]1C5

>  <Name>  (449) 
Hydromorphone Hydrochloride

>  <Pocket>  (449) 
nan

>  <ATP_Site>  (449) 
nan

>  <Peripheral>  (449) 
nan

>  <Num_H_Atoms_ProtBoundConf>  (449) 
nan

>  <Num_Resolved_Atoms>  (449) 
nan

>  <Num_Not_Resolved_Atoms>  (449) 
nan

$$$$
CHEMBL1535
     RDKit          3D

  0  0  0  0  0  0  0  0  0  0999 V3000
M  V30 BEGIN CTAB
M  V30 COUNTS 49 50 0 0 0
M  V30 BEGIN ATOM
M  V30 1 C 2.166748 -4.335525 2.756146 0
M  V30 2 C 3.086159 -3.838413 1.702036 0
M  V30 3 N 2.534718 -3.077883 0.654024 0
M  V30 4 C 1.672373 -3.705978 -0.259008 0
M  V30 5 C 1.130647 -2.785117 -1.328926 0
M  V30 6 O 0.280266 -3.456442 -2.208489 0
M  V30 7 C 2.472006 -1.658747 0.798438 0
M  V30 8 C 1.507588 -1.167614 1.803528 0
M  V30 9 C 1.413311 0.279547 2.026591 0
M  V30 10 C 1.071301 1.207803 0.946640 0
M  V30 11 C 2.021098 1.266676 -0.223818 0
M  V30 12 N -0.302708 1.167091 0.484285 0
M  V30 13 C -1.520646 1.552573 1.074312 0
M  V30 14 C -1.586772 2.120850 2.330048 0
M  V30 15 C -2.761684 2.536212 2.962897 0
M  V30 16 N -3.932033 2.364339 2.281486 0
M  V30 17 C -3.884969 1.812624 1.057714 0
M  V30 18 C -5.083469 1.665415 0.420172 0
M  V30 19 C -5.213848 1.119833 -0.840030 0
M  V30 20 Cl -6.740131 0.935821 -1.650627 0
M  V30 21 C -4.040459 0.710182 -1.460196 0
M  V30 22 C -2.826762 0.854325 -0.824303 0
M  V30 23 C -2.729755 1.402928 0.432864 0
M  V30 24 H 2.313155 -3.751866 3.695255 0
M  V30 25 H 2.421152 -5.416870 2.967093 0
M  V30 26 H 1.105752 -4.359315 2.464095 0
M  V30 27 H 3.593180 -4.734400 1.226294 0
M  V30 28 H 3.934940 -3.329539 2.223496 0
M  V30 29 H 0.834611 -4.298313 0.210934 0
M  V30 30 H 2.270189 -4.481079 -0.806435 0
M  V30 31 H 0.512266 -1.954365 -0.907082 0
M  V30 32 H 1.924782 -2.345000 -1.926562 0
M  V30 33 H -0.403503 -2.820516 -2.596326 0
M  V30 34 H 2.308055 -1.245116 -0.240828 0
M  V30 35 H 3.496746 -1.312302 1.089027 0
M  V30 36 H 0.538497 -1.675665 1.609089 0
M  V30 37 H 1.828590 -1.620011 2.795776 0
M  V30 38 H 2.441096 0.604977 2.405107 0
M  V30 39 H 0.772974 0.504201 2.935425 0
M  V30 40 H 1.149755 2.250867 1.405572 0
M  V30 41 H 3.043585 0.966568 0.020468 0
M  V30 42 H 2.136801 2.351113 -0.562554 0
M  V30 43 H 1.600573 0.785059 -1.145251 0
M  V30 44 H -0.324608 0.760809 -0.473369 0
M  V30 45 H -0.728469 2.300550 2.929948 0
M  V30 46 H -2.783631 2.977982 3.947863 0
M  V30 47 H -6.021650 1.978348 0.883503 0
M  V30 48 H -4.128151 0.277027 -2.457782 0
M  V30 49 H -1.976768 0.508905 -1.382939 0
M  V30 END ATOM
M  V30 BEGIN BOND
M  V30 1 1 1 2
M  V30 2 1 2 3
M  V30 3 1 3 4
M  V30 4 1 4 5
M  V30 5 1 5 6
M  V30 6 1 3 7
M  V30 7 1 7 8
M  V30 8 1 8 9
M  V30 9 1 9 10
M  V30 10 1 10 11
M  V30 11 1 10 12
M  V30 12 1 12 13
M  V30 13 2 13 14
M  V30 14 1 14 15
M  V30 15 2 15 16
M  V30 16 1 16 17
M  V30 17 2 17 18
M  V30 18 1 18 19
M  V30 19 1 19 20
M  V30 20 2 19 21
M  V30 21 1 21 22
M  V30 22 2 22 23
M  V30 23 1 23 13
M  V30 24 1 23 17
M  V30 25 1 1 24
M  V30 26 1 1 25
M  V30 27 1 1 26
M  V30 28 1 2 27
M  V30 29 1 2 28
M  V30 30 1 4 29
M  V30 31 1 4 30
M  V30 32 1 5 31
M  V30 33 1 5 32
M  V30 34 1 6 33
M  V30 35 1 7 34
M  V30 36 1 7 35
M  V30 37 1 8 36
M  V30 38 1 8 37
M  V30 39 1 9 38
M  V30 40 1 9 39
M  V30 41 1 10 40
M  V30 42 1 11 41
M  V30 43 1 11 42
M  V30 44 1 11 43
M  V30 45 1 12 44
M  V30 46 1 14 45
M  V30 47 1 15 46
M  V30 48 1 18 47
M  V30 49 1 21 48
M  V30 50 1 22 49
M  V30 END BOND
M  V30 END CTAB
M  END
>  <Dataset>  (450) 
OralDrugs

>  <Ligand_Instance>  (450) 
nan

>  <PDB_ID>  (450) 
nan

>  <Standardized_SMILES>  (450) 
CCN(CCO)CCCC(C)Nc1ccnc2cc(Cl)ccc12

>  <Name>  (450) 
Hydroxychloroquine

>  <Pocket>  (450) 
nan

>  <ATP_Site>  (450) 
nan

>  <Peripheral>  (450) 
nan

>  <Num_H_Atoms_ProtBoundConf>  (450) 
nan

>  <Num_Resolved_Atoms>  (450) 
nan

>  <Num_Not_Resolved_Atoms>  (450) 
nan

$$$$
CHEMBL467
     RDKit          3D

  0  0  0  0  0  0  0  0  0  0999 V3000
M  V30 BEGIN CTAB
M  V30 COUNTS 9 8 0 0 0
M  V30 BEGIN ATOM
M  V30 1 N 1.799311 -2.651043 1.644797 0
M  V30 2 C 1.337161 -1.449079 2.277887 0
M  V30 3 O 1.143743 -1.520778 3.515813 0
M  V30 4 N 1.157210 -0.327442 1.417900 0
M  V30 5 O 0.734762 0.887797 1.799336 0
M  V30 6 H 2.824729 -2.686424 1.859016 0
M  V30 7 H 1.444852 -3.442460 1.076345 0
M  V30 8 H 1.348780 -0.385842 0.410872 0
M  V30 9 H 1.271332 1.614329 1.426964 0
M  V30 END ATOM
M  V30 BEGIN BOND
M  V30 1 1 1 2
M  V30 2 2 2 3
M  V30 3 1 2 4
M  V30 4 1 4 5
M  V30 5 1 1 6
M  V30 6 1 1 7
M  V30 7 1 4 8
M  V30 8 1 5 9
M  V30 END BOND
M  V30 END CTAB
M  END
>  <Dataset>  (451) 
OralDrugs

>  <Ligand_Instance>  (451) 
nan

>  <PDB_ID>  (451) 
nan

>  <Standardized_SMILES>  (451) 
NC(=O)NO

>  <Name>  (451) 
Hydroxyurea

>  <Pocket>  (451) 
nan

>  <ATP_Site>  (451) 
nan

>  <Peripheral>  (451) 
nan

>  <Num_H_Atoms_ProtBoundConf>  (451) 
nan

>  <Num_Resolved_Atoms>  (451) 
nan

>  <Num_Not_Resolved_Atoms>  (451) 
nan

$$$$
CHEMBL896
     RDKit          3D

  0  0  0  0  0  0  0  0  0  0999 V3000
M  V30 BEGIN CTAB
M  V30 COUNTS 53 55 0 0 0
M  V30 BEGIN ATOM
M  V30 1 O -0.519687 -6.208133 2.804511 0
M  V30 2 C 0.118791 -5.131388 3.428960 0
M  V30 3 C -0.351073 -3.882655 2.731606 0
M  V30 4 O 0.179489 -2.716427 3.218846 0
M  V30 5 C 1.544195 -2.617713 3.155268 0
M  V30 6 C 2.141403 -2.698940 1.795405 0
M  V30 7 N 1.725802 -1.708697 0.882294 0
M  V30 8 C 2.143643 -0.373385 1.150703 0
M  V30 9 C 1.528993 0.658134 0.285685 0
M  V30 10 N 0.898001 0.243108 -0.889878 0
M  V30 11 C -0.424867 0.749378 -1.076902 0
M  V30 12 C -0.516736 2.235504 -0.991965 0
M  V30 13 C 0.440989 2.956407 -1.673356 0
M  V30 14 C 0.326501 4.333610 -1.571367 0
M  V30 15 C -0.680627 4.941304 -0.835790 0
M  V30 16 C -1.617135 4.169606 -0.170559 0
M  V30 17 C -1.538282 2.788545 -0.246844 0
M  V30 18 C -1.509737 0.031733 -0.424663 0
M  V30 19 C -1.567193 -0.455265 0.861222 0
M  V30 20 C -2.621900 -1.129362 1.433887 0
M  V30 21 C -3.743915 -1.351873 0.664628 0
M  V30 22 Cl -5.111801 -2.197723 1.327895 0
M  V30 23 C -3.799522 -0.912588 -0.627709 0
M  V30 24 C -2.703425 -0.252629 -1.109767 0
M  V30 25 C 1.086929 -1.069792 -1.374324 0
M  V30 26 C 1.793336 -2.033658 -0.499384 0
M  V30 27 H 0.022166 -6.425157 2.001618 0
M  V30 28 H 1.209243 -5.305005 3.318734 0
M  V30 29 H -0.196966 -5.159024 4.490937 0
M  V30 30 H -0.259584 -4.039217 1.651356 0
M  V30 31 H -1.460841 -3.834336 2.943807 0
M  V30 32 H 1.800174 -1.618684 3.615903 0
M  V30 33 H 1.978444 -3.366515 3.864620 0
M  V30 34 H 3.244826 -2.621448 1.913726 0
M  V30 35 H 1.941505 -3.698252 1.370007 0
M  V30 36 H 1.931687 -0.104047 2.221815 0
M  V30 37 H 3.252093 -0.391416 1.084124 0
M  V30 38 H 2.386915 1.338323 -0.023788 0
M  V30 39 H 0.865455 1.337185 0.863168 0
M  V30 40 H -0.605500 0.582986 -2.200676 0
M  V30 41 H 1.233951 2.505998 -2.252576 0
M  V30 42 H 1.024625 5.013803 -2.066219 0
M  V30 43 H -0.796115 6.017129 -0.737164 0
M  V30 44 H -2.410946 4.623018 0.408147 0
M  V30 45 H -2.268791 2.172576 0.271969 0
M  V30 46 H -0.711420 -0.303575 1.499875 0
M  V30 47 H -2.570655 -1.475444 2.462056 0
M  V30 48 H -4.666175 -1.073194 -1.251709 0
M  V30 49 H -2.774055 0.088452 -2.148226 0
M  V30 50 H 1.688711 -0.976511 -2.327278 0
M  V30 51 H 0.150569 -1.570918 -1.725841 0
M  V30 52 H 2.894722 -2.038371 -0.756141 0
M  V30 53 H 1.459856 -3.059435 -0.673041 0
M  V30 END ATOM
M  V30 BEGIN BOND
M  V30 1 1 1 2
M  V30 2 1 2 3
M  V30 3 1 3 4
M  V30 4 1 4 5
M  V30 5 1 5 6
M  V30 6 1 6 7
M  V30 7 1 7 8
M  V30 8 1 8 9
M  V30 9 1 9 10
M  V30 10 1 10 11
M  V30 11 1 11 12
M  V30 12 2 12 13
M  V30 13 1 13 14
M  V30 14 2 14 15
M  V30 15 1 15 16
M  V30 16 2 16 17
M  V30 17 1 11 18
M  V30 18 2 18 19
M  V30 19 1 19 20
M  V30 20 2 20 21
M  V30 21 1 21 22
M  V30 22 1 21 23
M  V30 23 2 23 24
M  V30 24 1 10 25
M  V30 25 1 25 26
M  V30 26 1 26 7
M  V30 27 1 17 12
M  V30 28 1 24 18
M  V30 29 1 1 27
M  V30 30 1 2 28
M  V30 31 1 2 29
M  V30 32 1 3 30
M  V30 33 1 3 31
M  V30 34 1 5 32
M  V30 35 1 5 33
M  V30 36 1 6 34
M  V30 37 1 6 35
M  V30 38 1 8 36
M  V30 39 1 8 37
M  V30 40 1 9 38
M  V30 41 1 9 39
M  V30 42 1 11 40
M  V30 43 1 13 41
M  V30 44 1 14 42
M  V30 45 1 15 43
M  V30 46 1 16 44
M  V30 47 1 17 45
M  V30 48 1 19 46
M  V30 49 1 20 47
M  V30 50 1 23 48
M  V30 51 1 24 49
M  V30 52 1 25 50
M  V30 53 1 25 51
M  V30 54 1 26 52
M  V30 55 1 26 53
M  V30 END BOND
M  V30 END CTAB
M  END
>  <Dataset>  (452) 
OralDrugs

>  <Ligand_Instance>  (452) 
nan

>  <PDB_ID>  (452) 
nan

>  <Standardized_SMILES>  (452) 
OCCOCCN1CCN(C(c2ccccc2)c2ccc(Cl)cc2)CC1

>  <Name>  (452) 
Hydroxyzine

>  <Pocket>  (452) 
nan

>  <ATP_Site>  (452) 
nan

>  <Peripheral>  (452) 
nan

>  <Num_H_Atoms_ProtBoundConf>  (452) 
nan

>  <Num_Resolved_Atoms>  (452) 
nan

>  <Num_Not_Resolved_Atoms>  (452) 
nan

$$$$
CHEMBL3989569
     RDKit          3D

  0  0  0  0  0  0  0  0  0  0999 V3000
M  V30 BEGIN CTAB
M  V30 COUNTS 42 41 0 0 0
M  V30 BEGIN ATOM
M  V30 1 C -3.297703 -3.512756 2.538925 0
M  V30 2 C -1.815211 -3.264810 2.593327 0
M  V30 3 C -1.317421 -3.051181 1.174145 0
M  V30 4 C 0.143014 -2.776744 1.108191 0
M  V30 5 C 0.646013 -1.558333 1.779005 0
M  V30 6 N 0.200782 -0.303430 1.294628 0
M  V30 7 C -1.171472 0.037503 1.457391 0
M  V30 8 C 1.053486 0.776692 1.690868 0
M  V30 9 C 2.399547 0.872775 1.101913 0
M  V30 10 C 2.529579 1.040396 -0.360766 0
M  V30 11 O 3.926705 1.105146 -0.614298 0
M  V30 12 P 1.840559 2.585743 -0.990032 0
M  V30 13 O 2.548884 2.857122 -2.309042 0
M  V30 14 O 2.232892 3.886241 0.015228 0
M  V30 15 O 0.206093 2.496123 -1.349647 0
M  V30 16 P 1.928455 -0.311236 -1.372664 0
M  V30 17 O 0.429129 -0.466942 -1.352927 0
M  V30 18 O 2.735473 -1.709532 -0.905767 0
M  V30 19 O 2.327602 -0.043270 -3.020662 0
M  V30 20 H -3.609565 -3.841203 1.525379 0
M  V30 21 H -3.884765 -2.612478 2.882393 0
M  V30 22 H -3.613120 -4.331098 3.236130 0
M  V30 23 H -1.490212 -2.499493 3.305760 0
M  V30 24 H -1.368514 -4.226702 3.009829 0
M  V30 25 H -1.475732 -4.058337 0.676208 0
M  V30 26 H -1.953636 -2.358952 0.607344 0
M  V30 27 H 0.431854 -2.814993 0.034157 0
M  V30 28 H 0.662145 -3.690250 1.540684 0
M  V30 29 H 0.460044 -1.570208 2.890408 0
M  V30 30 H 1.769637 -1.572893 1.664541 0
M  V30 31 H -1.199179 1.157053 1.674687 0
M  V30 32 H -1.695298 -0.399491 2.313303 0
M  V30 33 H -1.744168 -0.015943 0.493310 0
M  V30 34 H 1.205251 0.688029 2.812901 0
M  V30 35 H 0.453143 1.716356 1.607432 0
M  V30 36 H 2.987250 -0.044741 1.370988 0
M  V30 37 H 2.992900 1.696631 1.581060 0
M  V30 38 H 4.214507 1.998604 -0.891231 0
M  V30 39 H 2.170923 3.665261 0.977122 0
M  V30 40 H -0.349883 3.105549 -0.801792 0
M  V30 41 H 3.577088 -1.771319 -1.421999 0
M  V30 42 H 1.777815 -0.671436 -3.534717 0
M  V30 END ATOM
M  V30 BEGIN BOND
M  V30 1 1 1 2
M  V30 2 1 2 3
M  V30 3 1 3 4
M  V30 4 1 4 5
M  V30 5 1 5 6
M  V30 6 1 6 7
M  V30 7 1 6 8
M  V30 8 1 8 9
M  V30 9 1 9 10
M  V30 10 1 10 11
M  V30 11 1 10 12
M  V30 12 2 12 13
M  V30 13 1 12 14
M  V30 14 1 12 15
M  V30 15 1 10 16
M  V30 16 2 16 17
M  V30 17 1 16 18
M  V30 18 1 16 19
M  V30 19 1 1 20
M  V30 20 1 1 21
M  V30 21 1 1 22
M  V30 22 1 2 23
M  V30 23 1 2 24
M  V30 24 1 3 25
M  V30 25 1 3 26
M  V30 26 1 4 27
M  V30 27 1 4 28
M  V30 28 1 5 29
M  V30 29 1 5 30
M  V30 30 1 7 31
M  V30 31 1 7 32
M  V30 32 1 7 33
M  V30 33 1 8 34
M  V30 34 1 8 35
M  V30 35 1 9 36
M  V30 36 1 9 37
M  V30 37 1 11 38
M  V30 38 1 14 39
M  V30 39 1 15 40
M  V30 40 1 18 41
M  V30 41 1 19 42
M  V30 END BOND
M  V30 END CTAB
M  END
>  <Dataset>  (453) 
OralDrugs

>  <Ligand_Instance>  (453) 
nan

>  <PDB_ID>  (453) 
nan

>  <Standardized_SMILES>  (453) 
CCCCCN(C)CCC(O)(P(=O)(O)O)P(=O)(O)O

>  <Name>  (453) 
Ibandronate Sodium

>  <Pocket>  (453) 
nan

>  <ATP_Site>  (453) 
nan

>  <Peripheral>  (453) 
nan

>  <Num_H_Atoms_ProtBoundConf>  (453) 
nan

>  <Num_Resolved_Atoms>  (453) 
nan

>  <Num_Not_Resolved_Atoms>  (453) 
nan

$$$$
CHEMBL4297513
     RDKit          3D

  0  0  0  0  0  0  0  0  0  0999 V3000
M  V30 BEGIN CTAB
M  V30 COUNTS 120 126 0 0 0
M  V30 BEGIN ATOM
M  V30 1 C 3.558439 -5.470068 3.287043 0
M  V30 2 C 2.207302 -5.457327 3.942931 0
M  V30 3 C 2.150510 -6.729203 4.811186 0
M  V30 4 C 1.923409 -4.338145 4.865372 0 CFG=1
M  V30 5 C 2.940893 -4.340999 5.987535 0
M  V30 6 C 1.598209 -2.996128 4.335117 0 CFG=1
M  V30 7 C 1.357029 -2.113909 5.574086 0
M  V30 8 C 2.744986 -2.355149 3.620028 0
M  V30 9 C 2.351094 -1.040220 2.968680 0
M  V30 10 C 1.296631 -1.305980 1.916242 0 CFG=2
M  V30 11 C 1.836035 -2.240686 0.897498 0
M  V30 12 C 0.962337 -0.023321 1.171326 0 CFG=1
M  V30 13 C 2.190535 0.585502 0.589859 0
M  V30 14 C 2.066999 1.050530 -0.830018 0
M  V30 15 C 0.679932 1.444928 -1.212607 0 CFG=2
M  V30 16 C -0.327090 0.339709 -1.098085 0 CFG=2
M  V30 17 C -0.217333 -0.699591 -2.194790 0
M  V30 18 O 0.779310 -0.510251 -3.092107 0
M  V30 19 C 1.076410 0.739364 -3.511112 0
M  V30 20 C 0.605014 1.871003 -2.652174 0 CFG=2
M  V30 21 C 1.577210 3.044123 -2.792251 0
M  V30 22 C -0.791727 2.237474 -3.051954 0 CFG=1
M  V30 23 O -1.226251 1.507595 -4.142060 0
M  V30 24 C -1.426553 2.270856 -5.272779 0
M  V30 25 C -1.908766 1.425334 -6.431960 0 CFG=2
M  V30 26 C -0.945741 0.378689 -6.872912 0
M  V30 27 N -2.075087 2.356728 -7.559545 0
M  V30 28 C -3.283115 0.857705 -6.179519 0
M  V30 29 C -4.291327 1.954955 -5.973804 0
M  V30 30 C -3.724147 0.086123 -7.403799 0
M  V30 31 C -3.335911 -0.083308 -5.011431 0
M  V30 32 C -1.772878 2.264461 -1.894920 0 CFG=2
M  V30 33 N -1.625029 3.520801 -1.220431 0
M  V30 34 N -0.912729 4.585306 -1.619109 0
M  V30 35 C -1.013213 5.561601 -0.741041 0
M  V30 36 N -1.810761 5.134454 0.263059 0
M  V30 37 C -2.164820 3.880466 -0.067413 0
M  V30 38 C -3.037518 3.132109 0.826066 0
M  V30 39 C -2.482419 2.867458 2.084045 0
M  V30 40 C -3.159486 2.177453 3.047940 0
M  V30 41 N -4.401753 1.729224 2.799376 0
M  V30 42 C -4.966641 1.963263 1.606563 0
M  V30 43 C -4.330297 2.653870 0.596741 0
M  V30 44 C -1.699026 1.029591 -1.119909 0
M  V30 45 C -0.086641 -0.366070 0.185832 0
M  V30 46 C -0.912317 -1.401847 0.433389 0
M  V30 47 C -0.922872 -2.288321 1.602227 0
M  V30 48 C 0.091534 -1.815349 2.661900 0 CFG=2
M  V30 49 C -0.629504 -0.720991 3.396145 0
M  V30 50 C 0.403476 -3.032145 3.446459 0 CFG=2
M  V30 51 C -0.796919 -3.584856 4.126973 0
M  V30 52 O -1.441956 -4.602977 3.763015 0
M  V30 53 O -1.482753 -3.168393 5.257279 0
M  V30 54 H 3.550590 -5.224020 2.205671 0
M  V30 55 H 4.291502 -4.924248 3.892607 0
M  V30 56 H 3.952650 -6.537293 3.292095 0
M  V30 57 H 1.389638 -5.648749 3.203295 0
M  V30 58 H 3.175116 -7.049821 5.124704 0
M  V30 59 H 1.458832 -6.578768 5.644268 0
M  V30 60 H 1.770229 -7.603273 4.227593 0
M  V30 61 H 0.964957 -4.669050 5.411086 0
M  V30 62 H 2.494721 -4.340655 6.999269 0
M  V30 63 H 3.594413 -5.213912 5.900586 0
M  V30 64 H 3.604115 -3.455130 5.953656 0
M  V30 65 H 2.141106 -1.342133 5.700921 0
M  V30 66 H 0.345286 -1.663811 5.567065 0
M  V30 67 H 1.391949 -2.698508 6.516809 0
M  V30 68 H 3.276612 -3.013438 2.940403 0
M  V30 69 H 3.484748 -2.065359 4.405428 0
M  V30 70 H 3.280589 -0.597443 2.577479 0
M  V30 71 H 2.000514 -0.374190 3.780538 0
M  V30 72 H 2.954236 -2.382204 0.980601 0
M  V30 73 H 1.742664 -1.872198 -0.168344 0
M  V30 74 H 1.427067 -3.248675 0.874034 0
M  V30 75 H 0.509036 0.657851 1.918564 0
M  V30 76 H 2.517165 1.441701 1.220884 0
M  V30 77 H 3.040132 -0.129941 0.607075 0
M  V30 78 H 2.702412 1.949925 -0.986450 0
M  V30 79 H 2.512483 0.298690 -1.541801 0
M  V30 80 H 0.367753 2.236971 -0.507081 0
M  V30 81 H -0.070595 -1.743104 -1.782038 0
M  V30 82 H -1.251744 -0.796032 -2.642379 0
M  V30 83 H 2.204318 0.820351 -3.518482 0
M  V30 84 H 0.793828 0.990357 -4.555927 0
M  V30 85 H 1.110914 3.758615 -3.509057 0
M  V30 86 H 1.683781 3.562816 -1.833492 0
M  V30 87 H 2.554995 2.678293 -3.196806 0
M  V30 88 H -0.733114 3.301664 -3.425925 0
M  V30 89 H -0.485402 2.759560 -5.630116 0
M  V30 90 H -2.147484 3.099237 -5.155240 0
M  V30 91 H -1.019652 -0.585611 -6.372276 0
M  V30 92 H 0.088256 0.830535 -6.836968 0
M  V30 93 H -1.076830 0.151443 -7.971342 0
M  V30 94 H -2.519854 1.896217 -8.360149 0
M  V30 95 H -2.500063 3.242906 -7.247214 0
M  V30 96 H -4.400390 2.583163 -6.870119 0
M  V30 97 H -4.122754 2.593557 -5.108835 0
M  V30 98 H -5.279122 1.447533 -5.838112 0
M  V30 99 H -4.587865 -0.562768 -7.071380 0
M  V30 100 H -4.200028 0.760770 -8.165843 0
M  V30 101 H -2.971984 -0.579577 -7.823246 0
M  V30 102 H -4.016536 -0.936196 -5.232845 0
M  V30 103 H -3.749912 0.396118 -4.102961 0
M  V30 104 H -2.355597 -0.550334 -4.795451 0
M  V30 105 H -2.782385 2.321060 -2.401832 0
M  V30 106 H -0.459631 6.474504 -0.988929 0
M  V30 107 H -1.472217 3.204041 2.355017 0
M  V30 108 H -2.693262 1.986117 4.027331 0
M  V30 109 H -5.959574 1.614864 1.383512 0
M  V30 110 H -4.689863 2.891113 -0.380354 0
M  V30 111 H -2.047362 1.011523 -0.092117 0
M  V30 112 H -2.357861 0.260068 -1.627078 0
M  V30 113 H -1.707430 -1.684853 -0.282078 0
M  V30 114 H -0.769612 -3.354099 1.356463 0
M  V30 115 H -1.929463 -2.243013 2.063788 0
M  V30 116 H -0.004658 0.013880 3.901298 0
M  V30 117 H -1.417391 -1.198486 4.012144 0
M  V30 118 H -1.232458 -0.129508 2.642829 0
M  V30 119 H 0.653387 -3.811039 2.664954 0
M  V30 120 H -1.667450 -3.730079 6.062978 0
M  V30 END ATOM
M  V30 BEGIN BOND
M  V30 1 1 1 2
M  V30 2 1 2 3
M  V30 3 1 2 4
M  V30 4 1 4 5
M  V30 5 1 4 6
M  V30 6 1 6 7 CFG=1
M  V30 7 1 6 8
M  V30 8 1 8 9
M  V30 9 1 9 10
M  V30 10 1 10 11 CFG=3
M  V30 11 1 10 12
M  V30 12 1 12 13
M  V30 13 1 13 14
M  V30 14 1 14 15
M  V30 15 1 15 16
M  V30 16 1 16 17 CFG=3
M  V30 17 1 17 18
M  V30 18 1 18 19
M  V30 19 1 19 20
M  V30 20 1 20 21 CFG=1
M  V30 21 1 20 22
M  V30 22 1 22 23
M  V30 23 1 23 24
M  V30 24 1 24 25
M  V30 25 1 25 26
M  V30 26 1 25 27 CFG=3
M  V30 27 1 25 28
M  V30 28 1 28 29
M  V30 29 1 28 30
M  V30 30 1 28 31
M  V30 31 1 22 32
M  V30 32 1 32 33
M  V30 33 1 33 34
M  V30 34 2 34 35
M  V30 35 1 35 36
M  V30 36 2 36 37
M  V30 37 1 37 38
M  V30 38 2 38 39
M  V30 39 1 39 40
M  V30 40 2 40 41
M  V30 41 1 41 42
M  V30 42 2 42 43
M  V30 43 1 32 44
M  V30 44 1 16 45
M  V30 45 2 45 46
M  V30 46 1 46 47
M  V30 47 1 47 48
M  V30 48 1 48 49 CFG=1
M  V30 49 1 48 50
M  V30 50 1 50 51
M  V30 51 2 51 52
M  V30 52 1 51 53
M  V30 53 1 50 6
M  V30 54 1 48 10
M  V30 55 1 45 12
M  V30 56 1 20 15
M  V30 57 1 37 33
M  V30 58 1 43 38
M  V30 59 1 44 16
M  V30 60 1 1 54
M  V30 61 1 1 55
M  V30 62 1 1 56
M  V30 63 1 2 57
M  V30 64 1 3 58
M  V30 65 1 3 59
M  V30 66 1 3 60
M  V30 67 1 4 61 CFG=1
M  V30 68 1 5 62
M  V30 69 1 5 63
M  V30 70 1 5 64
M  V30 71 1 7 65
M  V30 72 1 7 66
M  V30 73 1 7 67
M  V30 74 1 8 68
M  V30 75 1 8 69
M  V30 76 1 9 70
M  V30 77 1 9 71
M  V30 78 1 11 72
M  V30 79 1 11 73
M  V30 80 1 11 74
M  V30 81 1 12 75 CFG=1
M  V30 82 1 13 76
M  V30 83 1 13 77
M  V30 84 1 14 78
M  V30 85 1 14 79
M  V30 86 1 15 80 CFG=1
M  V30 87 1 17 81
M  V30 88 1 17 82
M  V30 89 1 19 83
M  V30 90 1 19 84
M  V30 91 1 21 85
M  V30 92 1 21 86
M  V30 93 1 21 87
M  V30 94 1 22 88 CFG=3
M  V30 95 1 24 89
M  V30 96 1 24 90
M  V30 97 1 26 91
M  V30 98 1 26 92
M  V30 99 1 26 93
M  V30 100 1 27 94
M  V30 101 1 27 95
M  V30 102 1 29 96
M  V30 103 1 29 97
M  V30 104 1 29 98
M  V30 105 1 30 99
M  V30 106 1 30 100
M  V30 107 1 30 101
M  V30 108 1 31 102
M  V30 109 1 31 103
M  V30 110 1 31 104
M  V30 111 1 32 105 CFG=3
M  V30 112 1 35 106
M  V30 113 1 39 107
M  V30 114 1 40 108
M  V30 115 1 42 109
M  V30 116 1 43 110
M  V30 117 1 44 111
M  V30 118 1 44 112
M  V30 119 1 46 113
M  V30 120 1 47 114
M  V30 121 1 47 115
M  V30 122 1 49 116
M  V30 123 1 49 117
M  V30 124 1 49 118
M  V30 125 1 50 119 CFG=3
M  V30 126 1 53 120
M  V30 END BOND
M  V30 END CTAB
M  END
>  <Dataset>  (454) 
OralDrugs

>  <Ligand_Instance>  (454) 
nan

>  <PDB_ID>  (454) 
nan

>  <Standardized_SMILES>  (454) 
CC(C)[C@@H](C)[C@@]1(C)CC[C@]2(C)[C@H]3CC[C@@H]4[C@@]5(COC[C@@]4(C)[C@@H](OC[C@](C)(N)C(C)(C)C)[C@H](n4ncnc4-c4ccncc4)C5)C3=CC[C@@]2(C)[C@@H]1C(=O)O

>  <Name>  (454) 
Ibrexafungerp

>  <Pocket>  (454) 
nan

>  <ATP_Site>  (454) 
nan

>  <Peripheral>  (454) 
nan

>  <Num_H_Atoms_ProtBoundConf>  (454) 
nan

>  <Num_Resolved_Atoms>  (454) 
nan

>  <Num_Not_Resolved_Atoms>  (454) 
nan

$$$$
CHEMBL1873475
     RDKit          3D

  0  0  0  0  0  0  0  0  0  0999 V3000
M  V30 BEGIN CTAB
M  V30 COUNTS 57 61 0 0 0
M  V30 BEGIN ATOM
M  V30 1 C 6.359131 -0.552879 2.863050 0
M  V30 2 C 6.500029 -1.056861 1.653652 0
M  V30 3 C 5.695895 -1.835249 0.727312 0
M  V30 4 O 6.274994 -2.092616 -0.358055 0
M  V30 5 N 4.374938 -2.264965 1.024099 0
M  V30 6 C 3.538179 -2.070920 2.217367 0
M  V30 7 C 2.854386 -3.414583 2.502221 0
M  V30 8 C 1.758841 -3.529950 1.486691 0
M  V30 9 C 2.201379 -3.051689 0.135764 0 CFG=1
M  V30 10 N 1.571366 -1.802260 -0.223040 0
M  V30 11 N 0.294087 -1.534012 -0.011484 0
M  V30 12 C 0.005328 -0.294620 -0.454769 0
M  V30 13 C -1.360410 0.189952 -0.304031 0
M  V30 14 C -1.933848 0.054271 0.966280 0
M  V30 15 C -3.215875 0.436588 1.301661 0
M  V30 16 C -3.986730 0.994616 0.304099 0
M  V30 17 O -5.293165 1.431230 0.474658 0
M  V30 18 C -6.380479 0.578286 0.257814 0
M  V30 19 C -7.686484 1.000978 0.424146 0
M  V30 20 C -8.709958 0.094886 0.189318 0
M  V30 21 C -8.461306 -1.202629 -0.201588 0
M  V30 22 C -7.156556 -1.665095 -0.379467 0
M  V30 23 C -6.172092 -0.729639 -0.134723 0
M  V30 24 C -3.475759 1.153092 -0.966578 0
M  V30 25 C -2.188660 0.754324 -1.249512 0
M  V30 26 C 1.198489 0.180093 -0.953228 0
M  V30 27 C 1.383987 1.425864 -1.511220 0
M  V30 28 N 0.376793 2.400959 -1.644308 0
M  V30 29 N 2.652554 1.692200 -1.937643 0
M  V30 30 C 3.617813 0.739078 -1.786812 0
M  V30 31 N 3.429288 -0.475377 -1.239897 0
M  V30 32 C 2.189043 -0.768028 -0.809553 0
M  V30 33 C 3.686760 -3.027188 0.015517 0
M  V30 34 H 6.832636 0.015795 3.644637 0
M  V30 35 H 5.857990 -0.333847 3.793552 0
M  V30 36 H 7.502811 -0.713110 1.465552 0
M  V30 37 H 4.110704 -1.807403 3.104867 0
M  V30 38 H 2.725092 -1.361068 1.976785 0
M  V30 39 H 2.416628 -3.350093 3.499358 0
M  V30 40 H 3.569471 -4.256225 2.473859 0
M  V30 41 H 0.929886 -2.876059 1.834962 0
M  V30 42 H 1.364073 -4.561096 1.456865 0
M  V30 43 H 1.831205 -3.817290 -0.609640 0
M  V30 44 H -1.360452 -0.378745 1.773588 0
M  V30 45 H -3.629076 0.322459 2.276550 0
M  V30 46 H -7.903629 2.008524 0.728550 0
M  V30 47 H -9.741109 0.412259 0.315721 0
M  V30 48 H -9.277694 -1.900619 -0.381842 0
M  V30 49 H -6.895144 -2.666535 -0.683305 0
M  V30 50 H -5.140783 -1.055890 -0.263616 0
M  V30 51 H -4.053359 1.586344 -1.769659 0
M  V30 52 H -1.785422 0.859230 -2.235222 0
M  V30 53 H -0.020368 2.858682 -2.502219 0
M  V30 54 H 0.081382 2.593404 -0.653782 0
M  V30 55 H 4.615137 0.995961 -2.141885 0
M  V30 56 H 4.024464 -4.094387 0.173948 0
M  V30 57 H 4.065614 -2.751901 -0.964276 0
M  V30 END ATOM
M  V30 BEGIN BOND
M  V30 1 2 1 2
M  V30 2 1 2 3
M  V30 3 2 3 4
M  V30 4 1 3 5
M  V30 5 1 5 6
M  V30 6 1 6 7
M  V30 7 1 7 8
M  V30 8 1 8 9
M  V30 9 1 9 10
M  V30 10 1 10 11
M  V30 11 2 11 12
M  V30 12 1 12 13
M  V30 13 2 13 14
M  V30 14 1 14 15
M  V30 15 2 15 16
M  V30 16 1 16 17
M  V30 17 1 17 18
M  V30 18 2 18 19
M  V30 19 1 19 20
M  V30 20 2 20 21
M  V30 21 1 21 22
M  V30 22 2 22 23
M  V30 23 1 16 24
M  V30 24 2 24 25
M  V30 25 1 12 26
M  V30 26 2 26 27
M  V30 27 1 27 28
M  V30 28 1 27 29
M  V30 29 2 29 30
M  V30 30 1 30 31
M  V30 31 2 31 32
M  V30 32 1 9 33
M  V30 33 1 33 5
M  V30 34 1 32 10
M  V30 35 1 25 13
M  V30 36 1 32 26
M  V30 37 1 23 18
M  V30 38 1 1 34
M  V30 39 1 1 35
M  V30 40 1 2 36
M  V30 41 1 6 37
M  V30 42 1 6 38
M  V30 43 1 7 39
M  V30 44 1 7 40
M  V30 45 1 8 41
M  V30 46 1 8 42
M  V30 47 1 9 43 CFG=3
M  V30 48 1 14 44
M  V30 49 1 15 45
M  V30 50 1 19 46
M  V30 51 1 20 47
M  V30 52 1 21 48
M  V30 53 1 22 49
M  V30 54 1 23 50
M  V30 55 1 24 51
M  V30 56 1 25 52
M  V30 57 1 28 53
M  V30 58 1 28 54
M  V30 59 1 30 55
M  V30 60 1 33 56
M  V30 61 1 33 57
M  V30 END BOND
M  V30 END CTAB
M  END
>  <Dataset>  (455) 
OralDrugs

>  <Ligand_Instance>  (455) 
nan

>  <PDB_ID>  (455) 
nan

>  <Standardized_SMILES>  (455) 
C=CC(=O)N1CCC[C@@H](n2nc(-c3ccc(Oc4ccccc4)cc3)c3c(N)ncnc32)C1

>  <Name>  (455) 
Ibrutinib

>  <Pocket>  (455) 
nan

>  <ATP_Site>  (455) 
nan

>  <Peripheral>  (455) 
nan

>  <Num_H_Atoms_ProtBoundConf>  (455) 
nan

>  <Num_Resolved_Atoms>  (455) 
nan

>  <Num_Not_Resolved_Atoms>  (455) 
nan

$$$$
CHEMBL19449
     RDKit          3D

  0  0  0  0  0  0  0  0  0  0999 V3000
M  V30 BEGIN CTAB
M  V30 COUNTS 35 36 0 0 0
M  V30 BEGIN ATOM
M  V30 1 C -1.800046 -1.955432 2.288469 0
M  V30 2 C -0.455691 -1.464364 2.670506 0
M  V30 3 C 0.247906 -2.551339 3.466136 0
M  V30 4 C 0.382547 -1.042481 1.530309 0
M  V30 5 O 1.530545 -1.604692 1.423436 0
M  V30 6 C 0.387135 -0.159185 0.408481 0
M  V30 7 C 0.073093 -0.165164 -0.921124 0
M  V30 8 C -0.353946 -1.333217 -1.706989 0
M  V30 9 C 0.831887 -2.003835 -2.371016 0
M  V30 10 C -1.237723 -2.306738 -1.005642 0
M  V30 11 N 0.260076 1.073849 -1.405123 0
M  V30 12 N 0.679263 1.896748 -0.479679 0
M  V30 13 C 0.965318 3.202639 -0.617984 0
M  V30 14 C 1.399747 3.921737 0.476365 0
M  V30 15 C 1.519551 3.250581 1.675277 0
M  V30 16 C 1.210374 1.914046 1.747559 0
M  V30 17 C 0.768800 1.164506 0.654540 0
M  V30 18 H -1.752465 -2.923540 1.793903 0
M  V30 19 H -2.431541 -2.107615 3.196606 0
M  V30 20 H -2.294183 -1.161716 1.690587 0
M  V30 21 H -0.601732 -0.630426 3.405260 0
M  V30 22 H -0.505990 -2.892447 4.228695 0
M  V30 23 H 0.485521 -3.424349 2.820601 0
M  V30 24 H 1.140627 -2.209324 3.992513 0
M  V30 25 H -0.964184 -0.918013 -2.563088 0
M  V30 26 H 0.407659 -2.675083 -3.147160 0
M  V30 27 H 1.409460 -2.647105 -1.687177 0
M  V30 28 H 1.447894 -1.248318 -2.868497 0
M  V30 29 H -2.102375 -1.764495 -0.584670 0
M  V30 30 H -0.700486 -2.962235 -0.313827 0
M  V30 31 H -1.702435 -3.017086 -1.759071 0
M  V30 32 H 0.863731 3.707839 -1.568686 0
M  V30 33 H 1.620509 4.970144 0.327767 0
M  V30 34 H 1.855023 3.786085 2.540716 0
M  V30 35 H 1.310294 1.408567 2.691298 0
M  V30 END ATOM
M  V30 BEGIN BOND
M  V30 1 1 1 2
M  V30 2 1 2 3
M  V30 3 1 2 4
M  V30 4 2 4 5
M  V30 5 1 4 6
M  V30 6 1 6 7
M  V30 7 1 7 8
M  V30 8 1 8 9
M  V30 9 1 8 10
M  V30 10 2 7 11
M  V30 11 1 11 12
M  V30 12 1 12 13
M  V30 13 2 13 14
M  V30 14 1 14 15
M  V30 15 2 15 16
M  V30 16 1 16 17
M  V30 17 2 17 6
M  V30 18 1 17 12
M  V30 19 1 1 18
M  V30 20 1 1 19
M  V30 21 1 1 20
M  V30 22 1 2 21
M  V30 23 1 3 22
M  V30 24 1 3 23
M  V30 25 1 3 24
M  V30 26 1 8 25
M  V30 27 1 9 26
M  V30 28 1 9 27
M  V30 29 1 9 28
M  V30 30 1 10 29
M  V30 31 1 10 30
M  V30 32 1 10 31
M  V30 33 1 13 32
M  V30 34 1 14 33
M  V30 35 1 15 34
M  V30 36 1 16 35
M  V30 END BOND
M  V30 END CTAB
M  END
>  <Dataset>  (456) 
OralDrugs

>  <Ligand_Instance>  (456) 
nan

>  <PDB_ID>  (456) 
nan

>  <Standardized_SMILES>  (456) 
CC(C)C(=O)c1c(C(C)C)nn2ccccc12

>  <Name>  (456) 
Ibudilast

>  <Pocket>  (456) 
nan

>  <ATP_Site>  (456) 
nan

>  <Peripheral>  (456) 
nan

>  <Num_H_Atoms_ProtBoundConf>  (456) 
nan

>  <Num_Resolved_Atoms>  (456) 
nan

>  <Num_Not_Resolved_Atoms>  (456) 
nan

$$$$
CHEMBL521
     RDKit          3D

  0  0  0  0  0  0  0  0  0  0999 V3000
M  V30 BEGIN CTAB
M  V30 COUNTS 33 33 0 0 0
M  V30 BEGIN ATOM
M  V30 1 C 1.376963 -2.430050 3.150553 0
M  V30 2 C -0.053215 -2.160472 3.482241 0
M  V30 3 C -0.993475 -3.190172 2.885309 0
M  V30 4 C -0.511413 -0.778194 3.123805 0
M  V30 5 C -0.411323 -0.430826 1.709090 0
M  V30 6 C -1.440642 -0.659898 0.824427 0
M  V30 7 C -1.373242 -0.342305 -0.514488 0
M  V30 8 C -0.230916 0.237964 -1.037824 0
M  V30 9 C -0.104529 0.599282 -2.467651 0
M  V30 10 C 1.072984 -0.099146 -3.098444 0
M  V30 11 C 0.072094 2.071323 -2.556983 0
M  V30 12 O 1.052699 2.679919 -3.053240 0
M  V30 13 O -0.908674 2.913088 -2.060589 0
M  V30 14 C 0.833536 0.491534 -0.199986 0
M  V30 15 C 0.704439 0.148575 1.139630 0
M  V30 16 H 1.865817 -3.099915 3.917399 0
M  V30 17 H 1.520950 -2.992615 2.193319 0
M  V30 18 H 1.989935 -1.504849 3.181167 0
M  V30 19 H -0.168294 -2.258062 4.582296 0
M  V30 20 H -0.616227 -3.527885 1.881703 0
M  V30 21 H -1.072031 -4.114409 3.494681 0
M  V30 22 H -2.025056 -2.794033 2.785221 0
M  V30 23 H 0.159164 -0.078921 3.704070 0
M  V30 24 H -1.539363 -0.661649 3.535633 0
M  V30 25 H -2.360449 -1.099672 1.119281 0
M  V30 26 H -2.161075 -0.509283 -1.230075 0
M  V30 27 H -1.074358 0.308865 -2.961038 0
M  V30 28 H 1.792980 0.649190 -3.485812 0
M  V30 29 H 0.730884 -0.762708 -3.916810 0
M  V30 30 H 1.607612 -0.701383 -2.338055 0
M  V30 31 H -1.099268 3.800824 -2.516306 0
M  V30 32 H 1.737874 0.943781 -0.581440 0
M  V30 33 H 1.566601 0.370033 1.744025 0
M  V30 END ATOM
M  V30 BEGIN BOND
M  V30 1 1 1 2
M  V30 2 1 2 3
M  V30 3 1 2 4
M  V30 4 1 4 5
M  V30 5 2 5 6
M  V30 6 1 6 7
M  V30 7 2 7 8
M  V30 8 1 8 9
M  V30 9 1 9 10
M  V30 10 1 9 11
M  V30 11 2 11 12
M  V30 12 1 11 13
M  V30 13 1 8 14
M  V30 14 2 14 15
M  V30 15 1 15 5
M  V30 16 1 1 16
M  V30 17 1 1 17
M  V30 18 1 1 18
M  V30 19 1 2 19
M  V30 20 1 3 20
M  V30 21 1 3 21
M  V30 22 1 3 22
M  V30 23 1 4 23
M  V30 24 1 4 24
M  V30 25 1 6 25
M  V30 26 1 7 26
M  V30 27 1 9 27
M  V30 28 1 10 28
M  V30 29 1 10 29
M  V30 30 1 10 30
M  V30 31 1 13 31
M  V30 32 1 14 32
M  V30 33 1 15 33
M  V30 END BOND
M  V30 END CTAB
M  END
>  <Dataset>  (457) 
OralDrugs

>  <Ligand_Instance>  (457) 
nan

>  <PDB_ID>  (457) 
nan

>  <Standardized_SMILES>  (457) 
CC(C)Cc1ccc(C(C)C(=O)O)cc1

>  <Name>  (457) 
Ibuprofen

>  <Pocket>  (457) 
nan

>  <ATP_Site>  (457) 
nan

>  <Peripheral>  (457) 
nan

>  <Num_H_Atoms_ProtBoundConf>  (457) 
nan

>  <Num_Resolved_Atoms>  (457) 
nan

>  <Num_Not_Resolved_Atoms>  (457) 
nan

$$$$
CHEMBL2216870
     RDKit          3D

  0  0  0  0  0  0  0  0  0  0999 V3000
M  V30 BEGIN CTAB
M  V30 COUNTS 49 53 0 0 0
M  V30 BEGIN ATOM
M  V30 1 C 1.837555 -2.931005 2.934379 0
M  V30 2 C 0.646620 -2.016951 2.831391 0
M  V30 3 C 0.639226 -1.358498 1.493656 0 CFG=2
M  V30 4 N 1.784677 -0.606277 1.197711 0
M  V30 5 C 2.945530 0.155775 0.899775 0
M  V30 6 N 3.983039 0.631375 1.607161 0
M  V30 7 C 4.973639 1.310766 1.071984 0
M  V30 8 N 4.926730 1.529846 -0.232439 0
M  V30 9 C 3.974806 1.129261 -1.060405 0
M  V30 10 N 3.858926 1.315402 -2.369227 0
M  V30 11 C 2.680786 0.690760 -2.662624 0
M  V30 12 N 2.143093 0.162782 -1.562438 0
M  V30 13 C 2.927845 0.406790 -0.491344 0
M  V30 14 C -0.595623 -0.493204 1.316422 0
M  V30 15 N -0.607198 0.794090 1.771978 0
M  V30 16 C -1.705660 1.578124 1.622815 0
M  V30 17 C -1.671782 2.869504 2.099504 0
M  V30 18 C -2.814345 3.620113 1.922022 0
M  V30 19 C -3.908632 3.064248 1.296940 0
M  V30 20 C -3.903493 1.768182 0.835303 0
M  V30 21 F -4.987824 1.232397 0.217638 0
M  V30 22 C -2.765823 0.974833 0.993852 0
M  V30 23 C -2.796313 -0.309846 0.524215 0
M  V30 24 O -3.814493 -0.790972 -0.043000 0
M  V30 25 N -1.676345 -1.050984 0.696078 0
M  V30 26 C -1.696028 -2.394945 0.211051 0
M  V30 27 C -2.148950 -3.437525 1.006449 0
M  V30 28 C -2.191723 -4.752067 0.610059 0
M  V30 29 C -1.753112 -5.086071 -0.680063 0
M  V30 30 C -1.305543 -4.051786 -1.464565 0
M  V30 31 C -1.265246 -2.739410 -1.061822 0
M  V30 32 H 1.675542 -3.770975 3.630638 0
M  V30 33 H 2.206658 -3.211151 1.939386 0
M  V30 34 H 2.660594 -2.293663 3.397617 0
M  V30 35 H 0.696564 -1.259287 3.641018 0
M  V30 36 H -0.307494 -2.568390 3.040543 0
M  V30 37 H 0.576621 -2.170547 0.670608 0
M  V30 38 H 2.009340 -0.568773 2.220120 0
M  V30 39 H 5.701664 1.600788 1.795963 0
M  V30 40 H 4.511569 1.822919 -3.001036 0
M  V30 41 H 2.240019 0.634152 -3.651420 0
M  V30 42 H -0.793344 3.291128 2.595099 0
M  V30 43 H -2.841732 4.625249 2.266295 0
M  V30 44 H -4.799090 3.661788 1.171765 0
M  V30 45 H -2.498157 -3.198481 2.022862 0
M  V30 46 H -2.538812 -5.565607 1.218400 0
M  V30 47 H -1.756805 -6.110009 -1.059048 0
M  V30 48 H -0.962172 -4.260576 -2.460006 0
M  V30 49 H -0.902405 -1.980721 -1.725660 0
M  V30 END ATOM
M  V30 BEGIN BOND
M  V30 1 1 1 2
M  V30 2 1 2 3
M  V30 3 1 3 4
M  V30 4 1 4 5
M  V30 5 2 5 6
M  V30 6 1 6 7
M  V30 7 2 7 8
M  V30 8 1 8 9
M  V30 9 1 9 10
M  V30 10 1 10 11
M  V30 11 2 11 12
M  V30 12 1 12 13
M  V30 13 1 3 14
M  V30 14 2 14 15
M  V30 15 1 15 16
M  V30 16 2 16 17
M  V30 17 1 17 18
M  V30 18 2 18 19
M  V30 19 1 19 20
M  V30 20 1 20 21
M  V30 21 2 20 22
M  V30 22 1 22 23
M  V30 23 2 23 24
M  V30 24 1 23 25
M  V30 25 1 25 26
M  V30 26 2 26 27
M  V30 27 1 27 28
M  V30 28 2 28 29
M  V30 29 1 29 30
M  V30 30 2 30 31
M  V30 31 1 13 5
M  V30 32 1 25 14
M  V30 33 1 31 26
M  V30 34 2 13 9
M  V30 35 1 22 16
M  V30 36 1 1 32
M  V30 37 1 1 33
M  V30 38 1 1 34
M  V30 39 1 2 35
M  V30 40 1 2 36
M  V30 41 1 3 37 CFG=3
M  V30 42 1 4 38
M  V30 43 1 7 39
M  V30 44 1 10 40
M  V30 45 1 11 41
M  V30 46 1 17 42
M  V30 47 1 18 43
M  V30 48 1 19 44
M  V30 49 1 27 45
M  V30 50 1 28 46
M  V30 51 1 29 47
M  V30 52 1 30 48
M  V30 53 1 31 49
M  V30 END BOND
M  V30 END CTAB
M  END
>  <Dataset>  (458) 
OralDrugs

>  <Ligand_Instance>  (458) 
nan

>  <PDB_ID>  (458) 
nan

>  <Standardized_SMILES>  (458) 
CC[C@H](Nc1ncnc2[nH]cnc12)c1nc2cccc(F)c2c(=O)n1-c1ccccc1

>  <Name>  (458) 
Idelalisib

>  <Pocket>  (458) 
nan

>  <ATP_Site>  (458) 
nan

>  <Peripheral>  (458) 
nan

>  <Num_H_Atoms_ProtBoundConf>  (458) 
nan

>  <Num_Resolved_Atoms>  (458) 
nan

>  <Num_Not_Resolved_Atoms>  (458) 
nan

$$$$
CHEMBL14376
     RDKit          3D

  0  0  0  0  0  0  0  0  0  0999 V3000
M  V30 BEGIN CTAB
M  V30 COUNTS 58 61 0 0 0
M  V30 BEGIN ATOM
M  V30 1 C 0.952819 -1.086161 3.516221 0
M  V30 2 O 1.112966 -0.112696 2.530340 0
M  V30 3 C 2.334231 0.382924 2.111375 0
M  V30 4 C 3.453330 -0.136136 2.726421 0
M  V30 5 C 4.689874 0.346840 2.320285 0
M  V30 6 C 5.921958 -0.166875 2.937550 0
M  V30 7 C 5.834797 -1.209884 4.000006 0
M  V30 8 O 7.046672 0.262198 2.580976 0
M  V30 9 C 4.796371 1.313034 1.335507 0
M  V30 10 C 3.638632 1.811033 0.739214 0
M  V30 11 C 2.376780 1.344904 1.125974 0
M  V30 12 O 1.187446 1.798122 0.572970 0
M  V30 13 C 1.109968 2.760808 -0.430811 0
M  V30 14 C -0.196947 3.174750 -0.945272 0
M  V30 15 C -1.128044 2.296317 -1.649097 0
M  V30 16 N -1.654146 1.170842 -0.970796 0
M  V30 17 C -2.788737 0.629740 -1.760604 0
M  V30 18 C -3.632514 -0.302603 -0.948502 0
M  V30 19 C -2.690667 -1.195130 -0.191946 0
M  V30 20 C -3.250187 -2.473401 0.250790 0
M  V30 21 N -3.889191 -2.694183 1.441555 0
M  V30 22 O -4.269821 -3.926246 1.536780 0
M  V30 23 C -3.955661 -4.632882 0.496469 0
M  V30 24 C -4.126472 -5.959716 0.107102 0
M  V30 25 C -3.640312 -6.365327 -1.117948 0
M  V30 26 F -3.812895 -7.675197 -1.494507 0
M  V30 27 C -2.989424 -5.468936 -1.955484 0
M  V30 28 C -2.830873 -4.154366 -1.548356 0
M  V30 29 C -3.312483 -3.731096 -0.322662 0
M  V30 30 C -1.422616 -1.239038 -0.960460 0
M  V30 31 C -0.727917 0.117012 -0.671325 0
M  V30 32 H 1.690069 -1.894953 3.356803 0
M  V30 33 H -0.062695 -1.549042 3.342869 0
M  V30 34 H 0.950403 -0.684278 4.535649 0
M  V30 35 H 3.458459 -0.887765 3.500006 0
M  V30 36 H 5.373512 -0.751843 4.895412 0
M  V30 37 H 5.184393 -2.046474 3.687147 0
M  V30 38 H 6.842625 -1.612518 4.195716 0
M  V30 39 H 5.772711 1.663768 1.046857 0
M  V30 40 H 3.694963 2.558627 -0.024595 0
M  V30 41 H 1.662651 3.667340 0.002355 0
M  V30 42 H 1.822769 2.449519 -1.256288 0
M  V30 43 H -0.767119 3.677236 -0.076823 0
M  V30 44 H -0.014484 4.124405 -1.591814 0
M  V30 45 H -0.729887 2.012773 -2.678178 0
M  V30 46 H -2.052996 2.912375 -1.954561 0
M  V30 47 H -2.506738 0.269716 -2.735224 0
M  V30 48 H -3.427293 1.555199 -1.905440 0
M  V30 49 H -4.312161 0.214518 -0.241662 0
M  V30 50 H -4.244377 -0.984244 -1.600108 0
M  V30 51 H -2.473777 -0.618084 0.761231 0
M  V30 52 H -4.646828 -6.634867 0.798984 0
M  V30 53 H -2.597964 -5.784524 -2.933245 0
M  V30 54 H -2.331503 -3.483695 -2.200177 0
M  V30 55 H -0.711625 -2.027629 -0.584322 0
M  V30 56 H -1.501560 -1.265733 -2.056390 0
M  V30 57 H -0.672201 0.078672 0.449240 0
M  V30 58 H 0.208324 0.124995 -1.207943 0
M  V30 END ATOM
M  V30 BEGIN BOND
M  V30 1 1 1 2
M  V30 2 1 2 3
M  V30 3 2 3 4
M  V30 4 1 4 5
M  V30 5 1 5 6
M  V30 6 1 6 7
M  V30 7 2 6 8
M  V30 8 2 5 9
M  V30 9 1 9 10
M  V30 10 2 10 11
M  V30 11 1 11 12
M  V30 12 1 12 13
M  V30 13 1 13 14
M  V30 14 1 14 15
M  V30 15 1 15 16
M  V30 16 1 16 17
M  V30 17 1 17 18
M  V30 18 1 18 19
M  V30 19 1 19 20
M  V30 20 2 20 21
M  V30 21 1 21 22
M  V30 22 1 22 23
M  V30 23 2 23 24
M  V30 24 1 24 25
M  V30 25 1 25 26
M  V30 26 2 25 27
M  V30 27 1 27 28
M  V30 28 2 28 29
M  V30 29 1 19 30
M  V30 30 1 30 31
M  V30 31 1 11 3
M  V30 32 1 31 16
M  V30 33 1 29 20
M  V30 34 1 29 23
M  V30 35 1 1 32
M  V30 36 1 1 33
M  V30 37 1 1 34
M  V30 38 1 4 35
M  V30 39 1 7 36
M  V30 40 1 7 37
M  V30 41 1 7 38
M  V30 42 1 9 39
M  V30 43 1 10 40
M  V30 44 1 13 41
M  V30 45 1 13 42
M  V30 46 1 14 43
M  V30 47 1 14 44
M  V30 48 1 15 45
M  V30 49 1 15 46
M  V30 50 1 17 47
M  V30 51 1 17 48
M  V30 52 1 18 49
M  V30 53 1 18 50
M  V30 54 1 19 51
M  V30 55 1 24 52
M  V30 56 1 27 53
M  V30 57 1 28 54
M  V30 58 1 30 55
M  V30 59 1 30 56
M  V30 60 1 31 57
M  V30 61 1 31 58
M  V30 END BOND
M  V30 END CTAB
M  END
>  <Dataset>  (459) 
OralDrugs

>  <Ligand_Instance>  (459) 
nan

>  <PDB_ID>  (459) 
nan

>  <Standardized_SMILES>  (459) 
COc1cc(C(C)=O)ccc1OCCCN1CCC(c2noc3cc(F)ccc23)CC1

>  <Name>  (459) 
Iloperidone

>  <Pocket>  (459) 
nan

>  <ATP_Site>  (459) 
nan

>  <Peripheral>  (459) 
nan

>  <Num_H_Atoms_ProtBoundConf>  (459) 
nan

>  <Num_Resolved_Atoms>  (459) 
nan

>  <Num_Not_Resolved_Atoms>  (459) 
nan

$$$$
CHEMBL941
     RDKit          3D

  0  0  0  0  0  0  0  0  0  0999 V3000
M  V30 BEGIN CTAB
M  V30 COUNTS 68 72 0 0 0
M  V30 BEGIN ATOM
M  V30 1 C 3.897088 -3.217515 6.313551 0
M  V30 2 C 3.002112 -2.432487 5.406845 0
M  V30 3 C 2.528918 -1.227906 5.861929 0
M  V30 4 C 1.700047 -0.453020 5.079116 0
M  V30 5 C 1.365740 -0.929353 3.829633 0
M  V30 6 N 0.509953 -0.090769 3.067183 0
M  V30 7 C 0.771457 0.953964 2.155421 0
M  V30 8 O 1.954556 1.290598 1.892160 0
M  V30 9 C -0.309385 1.673652 1.492738 0
M  V30 10 C 0.060407 2.681721 0.621262 0
M  V30 11 C -0.931564 3.410479 -0.045881 0
M  V30 12 C -2.299026 3.168369 0.125953 0
M  V30 13 C -3.285365 3.967001 -0.601002 0
M  V30 14 N -3.687262 3.476538 -1.874080 0
M  V30 15 C -4.304811 2.190707 -1.898008 0
M  V30 16 C -3.320611 1.222951 -2.559976 0
M  V30 17 N -3.248381 1.500604 -3.990592 0
M  V30 18 C -2.004830 0.966307 -4.495189 0
M  V30 19 C -3.223448 2.938625 -4.150212 0
M  V30 20 C -2.706109 3.656284 -2.913619 0
M  V30 21 C -2.580532 2.148163 1.010494 0
M  V30 22 C -1.645492 1.398880 1.693652 0
M  V30 23 C 1.865248 -2.144328 3.416449 0
M  V30 24 C 2.692653 -2.945598 4.165224 0
M  V30 25 N 3.194813 -4.194262 3.716850 0
M  V30 26 C 2.980233 -4.869240 2.493827 0
M  V30 27 N 3.581839 -6.056363 2.303420 0
M  V30 28 C 3.441132 -6.774119 1.182638 0
M  V30 29 C 2.645264 -6.279850 0.175097 0
M  V30 30 C 2.012155 -5.076308 0.322468 0
M  V30 31 C 1.173409 -4.548310 -0.727874 0
M  V30 32 C 0.517745 -3.342354 -0.620512 0
M  V30 33 C -0.294966 -2.818629 -1.624275 0
M  V30 34 C -0.450816 -3.558921 -2.801241 0
M  V30 35 N 0.193468 -4.717857 -2.876206 0
M  V30 36 C 0.967884 -5.201546 -1.901750 0
M  V30 37 N 2.220601 -4.440311 1.481933 0
M  V30 38 H 4.812409 -3.441470 5.768621 0
M  V30 39 H 4.096701 -2.689912 7.245561 0
M  V30 40 H 3.417426 -4.200347 6.579657 0
M  V30 41 H 2.806411 -0.882067 6.840601 0
M  V30 42 H 1.337356 0.492814 5.454161 0
M  V30 43 H -0.455054 -0.402739 3.314270 0
M  V30 44 H 1.097925 2.954044 0.413824 0
M  V30 45 H -0.597332 4.206141 -0.730528 0
M  V30 46 H -4.141865 4.180893 0.069700 0
M  V30 47 H -2.805958 4.971851 -0.784528 0
M  V30 48 H -5.192128 2.209528 -2.596347 0
M  V30 49 H -4.674678 1.807877 -0.948492 0
M  V30 50 H -2.294870 1.388495 -2.169487 0
M  V30 51 H -3.615907 0.170490 -2.392916 0
M  V30 52 H -1.318923 0.644869 -3.691379 0
M  V30 53 H -2.202493 0.091282 -5.174417 0
M  V30 54 H -1.433179 1.686024 -5.128559 0
M  V30 55 H -2.522328 3.170571 -4.976765 0
M  V30 56 H -4.261551 3.255753 -4.384636 0
M  V30 57 H -1.706639 3.284816 -2.640207 0
M  V30 58 H -2.669882 4.730613 -3.169612 0
M  V30 59 H -3.615285 1.906932 1.193252 0
M  V30 60 H -1.937820 0.614860 2.371129 0
M  V30 61 H 1.548643 -2.421266 2.440222 0
M  V30 62 H 3.825829 -4.672853 4.429552 0
M  V30 63 H 3.971837 -7.709675 1.147027 0
M  V30 64 H 2.579091 -6.911433 -0.696693 0
M  V30 65 H 0.605209 -2.731770 0.266859 0
M  V30 66 H -0.786964 -1.882541 -1.507213 0
M  V30 67 H -1.070227 -3.186199 -3.596955 0
M  V30 68 H 1.402899 -6.142241 -2.138361 0
M  V30 END ATOM
M  V30 BEGIN BOND
M  V30 1 1 1 2
M  V30 2 2 2 3
M  V30 3 1 3 4
M  V30 4 2 4 5
M  V30 5 1 5 6
M  V30 6 1 6 7
M  V30 7 2 7 8
M  V30 8 1 7 9
M  V30 9 2 9 10
M  V30 10 1 10 11
M  V30 11 2 11 12
M  V30 12 1 12 13
M  V30 13 1 13 14
M  V30 14 1 14 15
M  V30 15 1 15 16
M  V30 16 1 16 17
M  V30 17 1 17 18
M  V30 18 1 17 19
M  V30 19 1 19 20
M  V30 20 1 12 21
M  V30 21 2 21 22
M  V30 22 1 5 23
M  V30 23 2 23 24
M  V30 24 1 24 25
M  V30 25 1 25 26
M  V30 26 2 26 27
M  V30 27 1 27 28
M  V30 28 2 28 29
M  V30 29 1 29 30
M  V30 30 1 30 31
M  V30 31 2 31 32
M  V30 32 1 32 33
M  V30 33 2 33 34
M  V30 34 1 34 35
M  V30 35 2 35 36
M  V30 36 2 30 37
M  V30 37 1 24 2
M  V30 38 1 37 26
M  V30 39 1 22 9
M  V30 40 1 36 31
M  V30 41 1 20 14
M  V30 42 1 1 38
M  V30 43 1 1 39
M  V30 44 1 1 40
M  V30 45 1 3 41
M  V30 46 1 4 42
M  V30 47 1 6 43
M  V30 48 1 10 44
M  V30 49 1 11 45
M  V30 50 1 13 46
M  V30 51 1 13 47
M  V30 52 1 15 48
M  V30 53 1 15 49
M  V30 54 1 16 50
M  V30 55 1 16 51
M  V30 56 1 18 52
M  V30 57 1 18 53
M  V30 58 1 18 54
M  V30 59 1 19 55
M  V30 60 1 19 56
M  V30 61 1 20 57
M  V30 62 1 20 58
M  V30 63 1 21 59
M  V30 64 1 22 60
M  V30 65 1 23 61
M  V30 66 1 25 62
M  V30 67 1 28 63
M  V30 68 1 29 64
M  V30 69 1 32 65
M  V30 70 1 33 66
M  V30 71 1 34 67
M  V30 72 1 36 68
M  V30 END BOND
M  V30 END CTAB
M  END
>  <Dataset>  (460) 
OralDrugs

>  <Ligand_Instance>  (460) 
nan

>  <PDB_ID>  (460) 
nan

>  <Standardized_SMILES>  (460) 
Cc1ccc(NC(=O)c2ccc(CN3CCN(C)CC3)cc2)cc1Nc1nccc(-c2cccnc2)n1

>  <Name>  (460) 
Imatinib

>  <Pocket>  (460) 
nan

>  <ATP_Site>  (460) 
nan

>  <Peripheral>  (460) 
nan

>  <Num_H_Atoms_ProtBoundConf>  (460) 
nan

>  <Num_Resolved_Atoms>  (460) 
nan

>  <Num_Not_Resolved_Atoms>  (460) 
nan

$$$$
CHEMBL11
     RDKit          3D

  0  0  0  0  0  0  0  0  0  0999 V3000
M  V30 BEGIN CTAB
M  V30 COUNTS 45 47 0 0 0
M  V30 BEGIN ATOM
M  V30 1 C -0.968658 -4.388667 0.292876 0
M  V30 2 N -0.626547 -3.661158 -0.888404 0
M  V30 3 C -1.190329 -4.245601 -2.076939 0
M  V30 4 C 0.742992 -3.295992 -0.986109 0
M  V30 5 C 1.057308 -2.230307 0.088362 0
M  V30 6 C 0.245585 -1.015329 -0.092517 0
M  V30 7 N 0.370997 0.114659 0.754156 0
M  V30 8 C 1.260078 1.198991 0.386464 0
M  V30 9 C 2.190451 0.789083 -0.538515 0
M  V30 10 C 3.167997 1.593203 -1.083260 0
M  V30 11 C 3.217672 2.916239 -0.667749 0
M  V30 12 C 2.309026 3.380362 0.256669 0
M  V30 13 C 1.331536 2.537519 0.787692 0
M  V30 14 C 0.396580 3.156019 1.757404 0
M  V30 15 C 0.441585 2.432168 3.052238 0
M  V30 16 C -0.359802 1.182882 3.015171 0
M  V30 17 C -1.157007 1.025292 4.128724 0
M  V30 18 C -1.961521 -0.082991 4.286127 0
M  V30 19 C -1.948012 -1.038041 3.292743 0
M  V30 20 C -1.135443 -0.844316 2.190833 0
M  V30 21 C -0.323974 0.246788 2.003509 0
M  V30 22 H -1.737403 -3.899262 0.921868 0
M  V30 23 H -1.468579 -5.344537 -0.045904 0
M  V30 24 H -0.086517 -4.737966 0.868935 0
M  V30 25 H -2.286288 -4.395288 -1.901948 0
M  V30 26 H -1.112519 -3.598225 -2.961588 0
M  V30 27 H -0.786937 -5.267589 -2.219470 0
M  V30 28 H 0.862991 -2.726292 -1.953495 0
M  V30 29 H 1.471772 -4.091873 -1.007527 0
M  V30 30 H 2.150501 -2.205350 0.062815 0
M  V30 31 H 0.874961 -2.707857 1.110043 0
M  V30 32 H -0.817228 -1.351729 -0.273012 0
M  V30 33 H 0.318088 -0.678819 -1.208266 0
M  V30 34 H 2.158363 -0.200538 -0.867578 0
M  V30 35 H 3.894002 1.257025 -1.810385 0
M  V30 36 H 3.943431 3.630581 -1.030893 0
M  V30 37 H 2.293860 4.400665 0.623251 0
M  V30 38 H -0.656041 3.118228 1.364199 0
M  V30 39 H 0.678462 4.223038 1.901642 0
M  V30 40 H 0.006720 3.083178 3.858602 0
M  V30 41 H 1.501576 2.182322 3.342784 0
M  V30 42 H -1.096768 1.832260 4.854594 0
M  V30 43 H -2.560982 -0.136452 5.188788 0
M  V30 44 H -2.583543 -1.877978 3.454332 0
M  V30 45 H -1.193603 -1.651351 1.488884 0
M  V30 END ATOM
M  V30 BEGIN BOND
M  V30 1 1 1 2
M  V30 2 1 2 3
M  V30 3 1 2 4
M  V30 4 1 4 5
M  V30 5 1 5 6
M  V30 6 1 6 7
M  V30 7 1 7 8
M  V30 8 2 8 9
M  V30 9 1 9 10
M  V30 10 2 10 11
M  V30 11 1 11 12
M  V30 12 2 12 13
M  V30 13 1 13 14
M  V30 14 1 14 15
M  V30 15 1 15 16
M  V30 16 2 16 17
M  V30 17 1 17 18
M  V30 18 2 18 19
M  V30 19 1 19 20
M  V30 20 2 20 21
M  V30 21 1 21 7
M  V30 22 1 13 8
M  V30 23 1 21 16
M  V30 24 1 1 22
M  V30 25 1 1 23
M  V30 26 1 1 24
M  V30 27 1 3 25
M  V30 28 1 3 26
M  V30 29 1 3 27
M  V30 30 1 4 28
M  V30 31 1 4 29
M  V30 32 1 5 30
M  V30 33 1 5 31
M  V30 34 1 6 32
M  V30 35 1 6 33
M  V30 36 1 9 34
M  V30 37 1 10 35
M  V30 38 1 11 36
M  V30 39 1 12 37
M  V30 40 1 14 38
M  V30 41 1 14 39
M  V30 42 1 15 40
M  V30 43 1 15 41
M  V30 44 1 17 42
M  V30 45 1 18 43
M  V30 46 1 19 44
M  V30 47 1 20 45
M  V30 END BOND
M  V30 END CTAB
M  END
>  <Dataset>  (461) 
OralDrugs

>  <Ligand_Instance>  (461) 
nan

>  <PDB_ID>  (461) 
nan

>  <Standardized_SMILES>  (461) 
CN(C)CCCN1c2ccccc2CCc2ccccc21

>  <Name>  (461) 
Imipramine

>  <Pocket>  (461) 
nan

>  <ATP_Site>  (461) 
nan

>  <Peripheral>  (461) 
nan

>  <Num_H_Atoms_ProtBoundConf>  (461) 
nan

>  <Num_Resolved_Atoms>  (461) 
nan

>  <Num_Not_Resolved_Atoms>  (461) 
nan

$$$$
CHEMBL3989845
     RDKit          3D

  0  0  0  0  0  0  0  0  0  0999 V3000
M  V30 BEGIN CTAB
M  V30 COUNTS 45 48 0 0 0
M  V30 BEGIN ATOM
M  V30 1 O 4.672166 -1.204489 3.177879 0
M  V30 2 C 4.758563 -1.490855 1.931246 0
M  V30 3 O 5.824065 -1.962719 2.640589 0
M  V30 4 C 3.682049 -1.038191 1.088681 0
M  V30 5 C 3.804358 -1.340767 -0.248890 0
M  V30 6 C 2.811379 -0.935406 -1.111372 0
M  V30 7 C 2.947070 -1.244838 -2.446407 0
M  V30 8 C 1.927651 -0.818674 -3.271901 0
M  V30 9 C 0.812608 -0.112703 -2.803545 0
M  V30 10 C 0.798197 0.131773 -1.449848 0
M  V30 11 C 1.760707 -0.249040 -0.548948 0
M  V30 12 C 1.635938 0.057924 0.811632 0
M  V30 13 C 0.504084 0.809541 1.309871 0
M  V30 14 C -0.817063 0.226567 1.450159 0
M  V30 15 C -1.728278 1.274042 1.637392 0
M  V30 16 O -1.453642 2.648811 1.693582 0
M  V30 17 C -3.073097 1.054711 1.796139 0
M  V30 18 C -4.187766 1.954534 2.009517 0
M  V30 19 O -5.366865 2.198116 2.167771 0
M  V30 20 O -3.672880 3.267114 2.079413 0
M  V30 21 C -3.579796 -0.247768 1.775603 0
M  V30 22 C -2.728376 -1.324416 1.596056 0
M  V30 23 C -3.117187 -2.644476 1.572212 0
M  V30 24 C -2.235794 -3.692640 1.403883 0
M  V30 25 C -0.918409 -3.339651 1.258751 0
M  V30 26 C -0.522057 -2.034697 1.280625 0
M  V30 27 C -1.401746 -1.010227 1.445908 0
M  V30 28 C 2.651039 -0.360331 1.667711 0
M  V30 29 O 2.569932 -0.076303 3.025381 0
M  V30 30 H 6.299763 -2.816614 2.308271 0
M  V30 31 H 4.666736 -1.895129 -0.649726 0
M  V30 32 H 3.803624 -1.787420 -2.798871 0
M  V30 33 H 2.063685 -1.079875 -4.322810 0
M  V30 34 H 0.046884 0.194657 -3.509709 0
M  V30 35 H -0.086674 0.687703 -1.110285 0
M  V30 36 H 0.752240 1.353732 2.277999 0
M  V30 37 H 0.392983 1.726926 0.602397 0
M  V30 38 H -1.188822 3.095557 0.832725 0
M  V30 39 H -4.060644 4.035432 2.606271 0
M  V30 40 H -4.629089 -0.573745 1.889672 0
M  V30 41 H -4.164952 -2.873623 1.692830 0
M  V30 42 H -2.602407 -4.703740 1.393972 0
M  V30 43 H -0.231046 -4.176805 1.128498 0
M  V30 44 H 0.520061 -1.926414 1.170907 0
M  V30 45 H 2.889639 0.871412 3.268913 0
M  V30 END ATOM
M  V30 BEGIN BOND
M  V30 1 2 1 2
M  V30 2 1 2 3
M  V30 3 1 2 4
M  V30 4 2 4 5
M  V30 5 1 5 6
M  V30 6 2 6 7
M  V30 7 1 7 8
M  V30 8 2 8 9
M  V30 9 1 9 10
M  V30 10 2 10 11
M  V30 11 1 11 12
M  V30 12 1 12 13
M  V30 13 1 13 14
M  V30 14 2 14 15
M  V30 15 1 15 16
M  V30 16 1 15 17
M  V30 17 1 17 18
M  V30 18 2 18 19
M  V30 19 1 18 20
M  V30 20 2 17 21
M  V30 21 1 21 22
M  V30 22 2 22 23
M  V30 23 1 23 24
M  V30 24 2 24 25
M  V30 25 1 25 26
M  V30 26 2 26 27
M  V30 27 2 12 28
M  V30 28 1 28 29
M  V30 29 1 28 4
M  V30 30 1 11 6
M  V30 31 1 27 14
M  V30 32 1 27 22
M  V30 33 1 3 30
M  V30 34 1 5 31
M  V30 35 1 7 32
M  V30 36 1 8 33
M  V30 37 1 9 34
M  V30 38 1 10 35
M  V30 39 1 13 36
M  V30 40 1 13 37
M  V30 41 1 16 38
M  V30 42 1 20 39
M  V30 43 1 21 40
M  V30 44 1 23 41
M  V30 45 1 24 42
M  V30 46 1 25 43
M  V30 47 1 26 44
M  V30 48 1 29 45
M  V30 END BOND
M  V30 END CTAB
M  END
>  <Dataset>  (462) 
OralDrugs

>  <Ligand_Instance>  (462) 
nan

>  <PDB_ID>  (462) 
nan

>  <Standardized_SMILES>  (462) 
O=C(O)c1cc2ccccc2c(Cc2c(O)c(C(=O)O)cc3ccccc23)c1O

>  <Name>  (462) 
Imipramine Pamoate

>  <Pocket>  (462) 
nan

>  <ATP_Site>  (462) 
nan

>  <Peripheral>  (462) 
nan

>  <Num_H_Atoms_ProtBoundConf>  (462) 
nan

>  <Num_Resolved_Atoms>  (462) 
nan

>  <Num_Not_Resolved_Atoms>  (462) 
nan

$$$$
CHEMBL406
     RDKit          3D

  0  0  0  0  0  0  0  0  0  0999 V3000
M  V30 BEGIN CTAB
M  V30 COUNTS 40 42 0 0 0
M  V30 BEGIN ATOM
M  V30 1 C 0.986795 -3.698469 -1.928650 0
M  V30 2 C -0.040779 -3.033506 -1.058180 0
M  V30 3 C -1.263183 -2.789936 -1.931761 0
M  V30 4 C -0.860204 -1.582041 -2.717480 0
M  V30 5 C -1.325596 -1.092163 -3.928895 0
M  V30 6 C -0.781312 0.062725 -4.454356 0
M  V30 7 C 0.225978 0.705211 -3.746481 0
M  V30 8 C 0.711052 0.243749 -2.539067 0
M  V30 9 C 0.151578 -0.920427 -2.024729 0
M  V30 10 N 0.408811 -1.652660 -0.836432 0
M  V30 11 N 0.986227 -1.153361 0.336850 0
M  V30 12 C 0.235066 -0.593090 1.393906 0
M  V30 13 O -1.022263 -0.592735 1.161468 0
M  V30 14 C 0.808782 -0.064869 2.628244 0
M  V30 15 C 2.176528 -0.057412 2.898123 0
M  V30 16 C 2.638074 0.464616 4.098402 0
M  V30 17 C 1.749879 0.981372 5.036823 0
M  V30 18 Cl 2.398098 1.620187 6.521087 0
M  V30 19 C 0.400507 0.957613 4.735554 0
M  V30 20 S -0.635324 1.629934 5.978766 0
M  V30 21 N -0.220734 3.300604 6.266350 0
M  V30 22 O -0.499538 0.814829 7.215572 0
M  V30 23 O -2.038719 1.628637 5.444237 0
M  V30 24 C -0.074109 0.447174 3.557583 0
M  V30 25 H 0.635738 -4.709887 -2.250022 0
M  V30 26 H 1.068266 -3.074081 -2.860961 0
M  V30 27 H 1.985971 -3.734754 -1.502022 0
M  V30 28 H -0.258522 -3.571156 -0.132022 0
M  V30 29 H -2.188714 -2.649453 -1.369993 0
M  V30 30 H -1.344936 -3.671991 -2.605204 0
M  V30 31 H -2.125739 -1.635629 -4.454006 0
M  V30 32 H -1.159264 0.427312 -5.400760 0
M  V30 33 H 0.624115 1.606504 -4.194381 0
M  V30 34 H 1.497934 0.752120 -1.993347 0
M  V30 35 H 2.043786 -1.195228 0.443567 0
M  V30 36 H 2.842856 -0.456246 2.170267 0
M  V30 37 H 3.707221 0.463739 4.295012 0
M  V30 38 H -1.068506 3.742695 6.681117 0
M  V30 39 H -0.017982 3.752492 5.346394 0
M  V30 40 H -1.154358 0.479137 3.425255 0
M  V30 END ATOM
M  V30 BEGIN BOND
M  V30 1 1 1 2
M  V30 2 1 2 3
M  V30 3 1 3 4
M  V30 4 2 4 5
M  V30 5 1 5 6
M  V30 6 2 6 7
M  V30 7 1 7 8
M  V30 8 2 8 9
M  V30 9 1 9 10
M  V30 10 1 10 11
M  V30 11 1 11 12
M  V30 12 2 12 13
M  V30 13 1 12 14
M  V30 14 2 14 15
M  V30 15 1 15 16
M  V30 16 2 16 17
M  V30 17 1 17 18
M  V30 18 1 17 19
M  V30 19 1 19 20
M  V30 20 1 20 21
M  V30 21 2 20 22
M  V30 22 2 20 23
M  V30 23 2 19 24
M  V30 24 1 10 2
M  V30 25 1 24 14
M  V30 26 1 9 4
M  V30 27 1 1 25
M  V30 28 1 1 26
M  V30 29 1 1 27
M  V30 30 1 2 28
M  V30 31 1 3 29
M  V30 32 1 3 30
M  V30 33 1 5 31
M  V30 34 1 6 32
M  V30 35 1 7 33
M  V30 36 1 8 34
M  V30 37 1 11 35
M  V30 38 1 15 36
M  V30 39 1 16 37
M  V30 40 1 21 38
M  V30 41 1 21 39
M  V30 42 1 24 40
M  V30 END BOND
M  V30 END CTAB
M  END
>  <Dataset>  (463) 
OralDrugs

>  <Ligand_Instance>  (463) 
nan

>  <PDB_ID>  (463) 
nan

>  <Standardized_SMILES>  (463) 
CC1Cc2ccccc2N1NC(=O)c1ccc(Cl)c(S(N)(=O)=O)c1

>  <Name>  (463) 
Indapamide

>  <Pocket>  (463) 
nan

>  <ATP_Site>  (463) 
nan

>  <Peripheral>  (463) 
nan

>  <Num_H_Atoms_ProtBoundConf>  (463) 
nan

>  <Num_Resolved_Atoms>  (463) 
nan

>  <Num_Not_Resolved_Atoms>  (463) 
nan

$$$$
CHEMBL1201242
     RDKit          3D

  0  0  0  0  0  0  0  0  0  0999 V3000
M  V30 BEGIN CTAB
M  V30 COUNTS 47 49 0 0 0
M  V30 BEGIN ATOM
M  V30 1 C 0.063669 -5.419257 -0.222206 0
M  V30 2 C 0.494206 -4.378166 0.832074 0
M  V30 3 C -0.747417 -3.686687 1.271347 0
M  V30 4 N 1.468144 -3.560213 0.206022 0
M  V30 5 C 2.104432 -2.539942 0.933811 0
M  V30 6 C 1.301428 -1.312375 1.291519 0
M  V30 7 C 0.871188 -0.640347 0.028860 0
M  V30 8 C 0.084021 0.596701 0.124532 0
M  V30 9 C -0.217930 1.079966 -1.258815 0
M  V30 10 N 0.985317 1.469653 -1.919691 0
M  V30 11 O -1.306901 1.195784 -1.909399 0
M  V30 12 C 0.721966 1.717179 0.847994 0
M  V30 13 C 1.988011 2.272957 0.633516 0
M  V30 14 C 2.410457 3.326891 1.430728 0
M  V30 15 C 1.639126 3.865210 2.438406 0
M  V30 16 C 0.399542 3.289300 2.616619 0
M  V30 17 C -0.053483 2.258062 1.860570 0
M  V30 18 C -1.280813 1.461982 1.801778 0
M  V30 19 C -2.387863 1.639345 2.633658 0
M  V30 20 C -3.483753 0.822532 2.460072 0
M  V30 21 C -3.490884 -0.149429 1.487676 0
M  V30 22 C -2.360192 -0.283439 0.684755 0
M  V30 23 C -1.229365 0.495185 0.800142 0
M  V30 24 H -0.166020 -6.396126 0.250046 0
M  V30 25 H -0.848756 -5.028702 -0.710125 0
M  V30 26 H 0.835422 -5.493542 -1.010046 0
M  V30 27 H 0.927351 -5.002065 1.657350 0
M  V30 28 H -0.694556 -3.495101 2.378213 0
M  V30 29 H -1.658640 -4.352511 1.115418 0
M  V30 30 H -0.957031 -2.802327 0.673234 0
M  V30 31 H 1.241210 -3.347748 -0.779302 0
M  V30 32 H 2.611641 -2.956015 1.866494 0
M  V30 33 H 3.015320 -2.238795 0.317565 0
M  V30 34 H 0.507661 -1.499149 2.009895 0
M  V30 35 H 2.091016 -0.614199 1.735248 0
M  V30 36 H 0.369893 -1.374687 -0.616984 0
M  V30 37 H 1.834563 -0.418474 -0.527418 0
M  V30 38 H 1.869172 1.711258 -2.403525 0
M  V30 39 H 1.337852 2.421580 -2.145006 0
M  V30 40 H 2.658929 1.899809 -0.145766 0
M  V30 41 H 3.388233 3.756016 1.263246 0
M  V30 42 H 2.031501 4.686101 3.022680 0
M  V30 43 H -0.229346 3.684962 3.395935 0
M  V30 44 H -2.422772 2.389548 3.406905 0
M  V30 45 H -4.394168 0.874102 3.051365 0
M  V30 46 H -4.338471 -0.817873 1.317308 0
M  V30 47 H -2.392823 -1.051226 -0.075103 0
M  V30 END ATOM
M  V30 BEGIN BOND
M  V30 1 1 1 2
M  V30 2 1 2 3
M  V30 3 1 2 4
M  V30 4 1 4 5
M  V30 5 1 5 6
M  V30 6 1 6 7
M  V30 7 1 7 8
M  V30 8 1 8 9
M  V30 9 1 9 10
M  V30 10 2 9 11
M  V30 11 1 8 12
M  V30 12 2 12 13
M  V30 13 1 13 14
M  V30 14 2 14 15
M  V30 15 1 15 16
M  V30 16 2 16 17
M  V30 17 1 17 18
M  V30 18 2 18 19
M  V30 19 1 19 20
M  V30 20 2 20 21
M  V30 21 1 21 22
M  V30 22 2 22 23
M  V30 23 1 23 8
M  V30 24 1 17 12
M  V30 25 1 23 18
M  V30 26 1 1 24
M  V30 27 1 1 25
M  V30 28 1 1 26
M  V30 29 1 2 27
M  V30 30 1 3 28
M  V30 31 1 3 29
M  V30 32 1 3 30
M  V30 33 1 4 31
M  V30 34 1 5 32
M  V30 35 1 5 33
M  V30 36 1 6 34
M  V30 37 1 6 35
M  V30 38 1 7 36
M  V30 39 1 7 37
M  V30 40 1 10 38
M  V30 41 1 10 39
M  V30 42 1 13 40
M  V30 43 1 14 41
M  V30 44 1 15 42
M  V30 45 1 16 43
M  V30 46 1 19 44
M  V30 47 1 20 45
M  V30 48 1 21 46
M  V30 49 1 22 47
M  V30 END BOND
M  V30 END CTAB
M  END
>  <Dataset>  (464) 
OralDrugs

>  <Ligand_Instance>  (464) 
nan

>  <PDB_ID>  (464) 
nan

>  <Standardized_SMILES>  (464) 
CC(C)NCCCC1(C(N)=O)c2ccccc2-c2ccccc21

>  <Name>  (464) 
Indecainide

>  <Pocket>  (464) 
nan

>  <ATP_Site>  (464) 
nan

>  <Peripheral>  (464) 
nan

>  <Num_H_Atoms_ProtBoundConf>  (464) 
nan

>  <Num_Resolved_Atoms>  (464) 
nan

>  <Num_Not_Resolved_Atoms>  (464) 
nan

$$$$
CHEMBL115
     RDKit          3D

  0  0  0  0  0  0  0  0  0  0999 V3000
M  V30 BEGIN CTAB
M  V30 COUNTS 92 96 0 0 0
M  V30 BEGIN ATOM
M  V30 1 C -1.712101 -5.926658 2.313135 0
M  V30 2 C -0.262030 -5.605937 2.711518 0
M  V30 3 C -0.230174 -5.492987 4.209382 0
M  V30 4 C 0.592779 -6.763973 2.232629 0
M  V30 5 N 0.116669 -4.431246 2.007799 0
M  V30 6 C 1.363700 -3.769225 2.079200 0
M  V30 7 O 2.268090 -4.249491 2.846195 0
M  V30 8 C 1.939733 -2.563632 1.443327 0 CFG=2
M  V30 9 C 2.451743 -1.642011 2.489893 0
M  V30 10 N 1.607508 -0.513686 2.730722 0
M  V30 11 C 1.812722 0.084360 4.021779 0
M  V30 12 C 0.925182 1.254244 4.235951 0
M  V30 13 C -0.336097 1.259457 4.792998 0
M  V30 14 C -1.048741 2.445796 4.921815 0
M  V30 15 C -0.538384 3.664161 4.504699 0
M  V30 16 N 0.708011 3.677751 3.950924 0
M  V30 17 C 1.399299 2.507808 3.828976 0
M  V30 18 C 0.239423 -0.927060 2.494936 0
M  V30 19 C 0.144235 -1.027681 0.953929 0
M  V30 20 N 0.996024 -2.023307 0.516692 0
M  V30 21 C 0.886823 -2.675480 -0.702592 0
M  V30 22 C 1.154917 -1.898335 -1.978658 0 CFG=1
M  V30 23 O 1.057527 -2.884693 -3.036646 0
M  V30 24 C 0.066173 -0.933682 -2.344133 0
M  V30 25 C 0.298754 -0.114569 -3.575642 0 CFG=1
M  V30 26 C 0.491176 -0.885144 -4.847846 0
M  V30 27 C 0.708809 0.017945 -6.040965 0
M  V30 28 C -0.230564 0.496429 -6.925738 0
M  V30 29 C 0.112261 1.328331 -7.967084 0
M  V30 30 C 1.418674 1.716887 -8.164942 0
M  V30 31 C 2.397366 1.270458 -7.314452 0
M  V30 32 C 2.022148 0.434378 -6.276143 0
M  V30 33 C -0.904319 0.794825 -3.674754 0
M  V30 34 O -1.910994 1.181373 -4.344004 0
M  V30 35 N -0.989109 1.610926 -2.496866 0
M  V30 36 C -1.987827 2.593972 -2.204243 0 CFG=1
M  V30 37 C -2.775010 2.239673 -0.991765 0
M  V30 38 C -3.163250 0.953777 -0.608212 0
M  V30 39 C -3.899333 0.762458 0.554749 0
M  V30 40 C -4.226345 1.886849 1.304416 0
M  V30 41 C -3.841841 3.160431 0.924454 0
M  V30 42 C -3.109956 3.333941 -0.233648 0
M  V30 43 C -2.542995 4.535617 -0.931066 0
M  V30 44 C -1.439428 3.942373 -1.799463 0 CFG=1
M  V30 45 O -0.289914 3.713621 -1.038174 0
M  V30 46 H -1.986608 -5.398629 1.387754 0
M  V30 47 H -2.414762 -5.574135 3.096208 0
M  V30 48 H -1.846767 -7.017563 2.192016 0
M  V30 49 H 0.722457 -5.815617 4.661553 0
M  V30 50 H -1.000847 -6.205965 4.614069 0
M  V30 51 H -0.528416 -4.478743 4.496917 0
M  V30 52 H -0.009940 -7.706160 2.221068 0
M  V30 53 H 0.963925 -6.511029 1.224799 0
M  V30 54 H 1.456011 -6.841206 2.929686 0
M  V30 55 H -0.503851 -3.922389 1.352573 0
M  V30 56 H 2.809340 -2.904367 0.829990 0
M  V30 57 H 3.484739 -1.267721 2.307432 0
M  V30 58 H 2.522150 -2.190710 3.477059 0
M  V30 59 H 2.867347 0.438372 4.067279 0
M  V30 60 H 1.608945 -0.663769 4.813092 0
M  V30 61 H -0.702781 0.289448 5.108037 0
M  V30 62 H -2.040954 2.414569 5.368381 0
M  V30 63 H -1.147624 4.548595 4.633764 0
M  V30 64 H 2.390441 2.557338 3.385466 0
M  V30 65 H -0.449197 -0.096638 2.756879 0
M  V30 66 H -0.054562 -1.860518 2.987149 0
M  V30 67 H -0.909506 -1.030105 0.644108 0
M  V30 68 H 0.562102 -0.015683 0.650844 0
M  V30 69 H 1.590943 -3.558014 -0.689776 0
M  V30 70 H -0.121436 -3.175394 -0.853766 0
M  V30 71 H 2.162183 -1.528858 -1.973542 0
M  V30 72 H 0.082730 -3.061659 -3.119409 0
M  V30 73 H -0.906730 -1.495092 -2.549446 0
M  V30 74 H -0.178353 -0.316245 -1.470058 0
M  V30 75 H 1.160229 0.582703 -3.470258 0
M  V30 76 H -0.395084 -1.497769 -5.020772 0
M  V30 77 H 1.397534 -1.542299 -4.802427 0
M  V30 78 H -1.229304 0.163497 -6.743584 0
M  V30 79 H -0.708450 1.627139 -8.575409 0
M  V30 80 H 1.551633 2.373113 -9.016599 0
M  V30 81 H 3.399219 1.591394 -7.493825 0
M  V30 82 H 2.878552 0.135862 -5.652489 0
M  V30 83 H -0.385236 1.679505 -1.620839 0
M  V30 84 H -2.731422 2.722404 -3.040666 0
M  V30 85 H -2.932626 0.037506 -1.159068 0
M  V30 86 H -4.215047 -0.222081 0.866066 0
M  V30 87 H -4.806527 1.751254 2.223455 0
M  V30 88 H -4.110633 4.019260 1.529750 0
M  V30 89 H -2.114276 5.254896 -0.199815 0
M  V30 90 H -3.314049 5.038936 -1.530985 0
M  V30 91 H -1.270275 4.623753 -2.650887 0
M  V30 92 H -0.156631 4.405351 -0.341507 0
M  V30 END ATOM
M  V30 BEGIN BOND
M  V30 1 1 1 2
M  V30 2 1 2 3
M  V30 3 1 2 4
M  V30 4 1 2 5
M  V30 5 1 5 6
M  V30 6 2 6 7
M  V30 7 1 6 8
M  V30 8 1 8 9
M  V30 9 1 9 10
M  V30 10 1 10 11
M  V30 11 1 11 12
M  V30 12 2 12 13
M  V30 13 1 13 14
M  V30 14 2 14 15
M  V30 15 1 15 16
M  V30 16 2 16 17
M  V30 17 1 10 18
M  V30 18 1 18 19
M  V30 19 1 19 20
M  V30 20 1 20 21
M  V30 21 1 21 22
M  V30 22 1 22 23
M  V30 23 1 22 24
M  V30 24 1 24 25
M  V30 25 1 25 26
M  V30 26 1 26 27
M  V30 27 2 27 28
M  V30 28 1 28 29
M  V30 29 2 29 30
M  V30 30 1 30 31
M  V30 31 2 31 32
M  V30 32 1 25 33
M  V30 33 2 33 34
M  V30 34 1 33 35
M  V30 35 1 35 36
M  V30 36 1 36 37
M  V30 37 2 37 38
M  V30 38 1 38 39
M  V30 39 2 39 40
M  V30 40 1 40 41
M  V30 41 2 41 42
M  V30 42 1 42 43
M  V30 43 1 43 44
M  V30 44 1 44 45
M  V30 45 1 20 8
M  V30 46 1 32 27
M  V30 47 1 44 36
M  V30 48 1 17 12
M  V30 49 1 42 37
M  V30 50 1 1 46
M  V30 51 1 1 47
M  V30 52 1 1 48
M  V30 53 1 3 49
M  V30 54 1 3 50
M  V30 55 1 3 51
M  V30 56 1 4 52
M  V30 57 1 4 53
M  V30 58 1 4 54
M  V30 59 1 5 55
M  V30 60 1 8 56 CFG=3
M  V30 61 1 9 57
M  V30 62 1 9 58
M  V30 63 1 11 59
M  V30 64 1 11 60
M  V30 65 1 13 61
M  V30 66 1 14 62
M  V30 67 1 15 63
M  V30 68 1 17 64
M  V30 69 1 18 65
M  V30 70 1 18 66
M  V30 71 1 19 67
M  V30 72 1 19 68
M  V30 73 1 21 69
M  V30 74 1 21 70
M  V30 75 1 22 71 CFG=1
M  V30 76 1 23 72
M  V30 77 1 24 73
M  V30 78 1 24 74
M  V30 79 1 25 75 CFG=1
M  V30 80 1 26 76
M  V30 81 1 26 77
M  V30 82 1 28 78
M  V30 83 1 29 79
M  V30 84 1 30 80
M  V30 85 1 31 81
M  V30 86 1 32 82
M  V30 87 1 35 83
M  V30 88 1 36 84 CFG=3
M  V30 89 1 38 85
M  V30 90 1 39 86
M  V30 91 1 40 87
M  V30 92 1 41 88
M  V30 93 1 43 89
M  V30 94 1 43 90
M  V30 95 1 44 91 CFG=3
M  V30 96 1 45 92
M  V30 END BOND
M  V30 END CTAB
M  END
>  <Dataset>  (465) 
OralDrugs

>  <Ligand_Instance>  (465) 
nan

>  <PDB_ID>  (465) 
nan

>  <Standardized_SMILES>  (465) 
CC(C)(C)NC(=O)[C@@H]1CN(Cc2cccnc2)CCN1C[C@@H](O)C[C@@H](Cc1ccccc1)C(=O)N[C@H]1c2ccccc2C[C@H]1O

>  <Name>  (465) 
Indinavir

>  <Pocket>  (465) 
nan

>  <ATP_Site>  (465) 
nan

>  <Peripheral>  (465) 
nan

>  <Num_H_Atoms_ProtBoundConf>  (465) 
nan

>  <Num_Resolved_Atoms>  (465) 
nan

>  <Num_Not_Resolved_Atoms>  (465) 
nan

$$$$
CHEMBL6
     RDKit          3D

  0  0  0  0  0  0  0  0  0  0999 V3000
M  V30 BEGIN CTAB
M  V30 COUNTS 41 43 0 0 0
M  V30 BEGIN ATOM
M  V30 1 C -2.039618 -3.396729 -5.298606 0
M  V30 2 O -2.931994 -2.749926 -4.382044 0
M  V30 3 C -2.453906 -2.009834 -3.311075 0
M  V30 4 C -3.326985 -1.389530 -2.432052 0
M  V30 5 C -2.793780 -0.670518 -1.390738 0
M  V30 6 C -1.452430 -0.497533 -1.122737 0
M  V30 7 C -0.613397 -1.121741 -2.007787 0
M  V30 8 C -1.102542 -1.864199 -3.082142 0
M  V30 9 C 0.701260 -0.897663 -1.665361 0
M  V30 10 C 1.903477 -1.384790 -2.348909 0
M  V30 11 C 2.104099 -2.816895 -2.031451 0
M  V30 12 O 1.407977 -3.573591 -1.302171 0
M  V30 13 O 2.637987 -4.085759 -1.999535 0
M  V30 14 C 0.584475 -0.112250 -0.538028 0
M  V30 15 C 1.801488 0.395817 0.137194 0
M  V30 16 N -0.708173 0.134947 -0.199163 0
M  V30 17 C -1.311901 0.815314 0.863557 0
M  V30 18 O -2.564419 0.988914 0.851266 0
M  V30 19 C -0.899015 1.441466 2.090642 0
M  V30 20 C -1.597740 2.547428 2.568566 0
M  V30 21 C -1.288545 3.195237 3.771612 0
M  V30 22 C -0.240522 2.709906 4.515280 0
M  V30 23 Cl 0.153936 3.516624 6.022851 0
M  V30 24 C 0.499633 1.623125 4.117142 0
M  V30 25 C 0.113439 1.060237 2.921403 0
M  V30 26 H -1.239964 -2.693626 -5.619712 0
M  V30 27 H -1.548002 -4.255616 -4.818686 0
M  V30 28 H -2.588180 -3.711577 -6.186071 0
M  V30 29 H -4.364086 -1.514579 -2.627374 0
M  V30 30 H -3.556217 -0.232961 -0.769724 0
M  V30 31 H -0.422436 -2.334680 -3.748523 0
M  V30 32 H 1.798370 -1.307619 -3.469709 0
M  V30 33 H 2.815847 -0.856451 -2.053249 0
M  V30 34 H 3.528593 -4.335772 -2.409698 0
M  V30 35 H 2.181194 -0.287615 0.900687 0
M  V30 36 H 2.606380 0.574940 -0.619912 0
M  V30 37 H 1.587588 1.437543 0.519805 0
M  V30 38 H -2.438312 3.009141 2.060298 0
M  V30 39 H -1.828564 4.040521 4.129070 0
M  V30 40 H 1.320553 1.253725 4.713792 0
M  V30 41 H 0.705217 0.193456 2.669931 0
M  V30 END ATOM
M  V30 BEGIN BOND
M  V30 1 1 1 2
M  V30 2 1 2 3
M  V30 3 2 3 4
M  V30 4 1 4 5
M  V30 5 2 5 6
M  V30 6 1 6 7
M  V30 7 2 7 8
M  V30 8 1 7 9
M  V30 9 1 9 10
M  V30 10 1 10 11
M  V30 11 2 11 12
M  V30 12 1 11 13
M  V30 13 2 9 14
M  V30 14 1 14 15
M  V30 15 1 14 16
M  V30 16 1 16 17
M  V30 17 2 17 18
M  V30 18 1 17 19
M  V30 19 2 19 20
M  V30 20 1 20 21
M  V30 21 2 21 22
M  V30 22 1 22 23
M  V30 23 1 22 24
M  V30 24 2 24 25
M  V30 25 1 8 3
M  V30 26 1 25 19
M  V30 27 1 16 6
M  V30 28 1 1 26
M  V30 29 1 1 27
M  V30 30 1 1 28
M  V30 31 1 4 29
M  V30 32 1 5 30
M  V30 33 1 8 31
M  V30 34 1 10 32
M  V30 35 1 10 33
M  V30 36 1 13 34
M  V30 37 1 15 35
M  V30 38 1 15 36
M  V30 39 1 15 37
M  V30 40 1 20 38
M  V30 41 1 21 39
M  V30 42 1 24 40
M  V30 43 1 25 41
M  V30 END BOND
M  V30 END CTAB
M  END
>  <Dataset>  (466) 
OralDrugs

>  <Ligand_Instance>  (466) 
nan

>  <PDB_ID>  (466) 
nan

>  <Standardized_SMILES>  (466) 
COc1ccc2c(c1)c(CC(=O)O)c(C)n2C(=O)c1ccc(Cl)cc1

>  <Name>  (466) 
Indomethacin

>  <Pocket>  (466) 
nan

>  <ATP_Site>  (466) 
nan

>  <Peripheral>  (466) 
nan

>  <Num_H_Atoms_ProtBoundConf>  (466) 
nan

>  <Num_Resolved_Atoms>  (466) 
nan

>  <Num_Not_Resolved_Atoms>  (466) 
nan

$$$$
CHEMBL1852688
     RDKit          3D

  0  0  0  0  0  0  0  0  0  0999 V3000
M  V30 BEGIN CTAB
M  V30 COUNTS 69 72 0 0 0
M  V30 BEGIN ATOM
M  V30 1 C 4.513155 -2.101170 6.013813 0
M  V30 2 C 3.802157 -2.322389 4.723731 0
M  V30 3 N 3.741195 -1.175581 3.851962 0
M  V30 4 C 2.899988 -0.135035 4.397834 0
M  V30 5 C 3.301455 1.228924 3.872136 0
M  V30 6 N 3.883885 1.124358 2.545984 0
M  V30 7 C 3.314664 1.555208 1.304433 0
M  V30 8 C 4.038980 1.607735 0.132788 0
M  V30 9 C 3.421432 2.025022 -1.025903 0
M  V30 10 C 2.098934 2.405289 -1.108294 0
M  V30 11 N 1.476636 2.843374 -2.310765 0
M  V30 12 C 0.076301 3.090866 -2.338196 0
M  V30 13 C -0.653948 1.999131 -2.769958 0
M  V30 14 C -2.044990 2.065545 -2.854117 0
M  V30 15 N -2.772891 0.912356 -3.317359 0
M  V30 16 C -2.975869 0.939724 -4.751867 0
M  V30 17 C -3.312704 -0.224212 -2.626663 0
M  V30 18 O -3.932329 -1.151229 -3.226285 0
M  V30 19 N -3.229422 -0.458853 -1.225886 0
M  V30 20 C -3.901067 -1.713411 -0.989766 0
M  V30 21 C -2.980363 -2.752294 -1.104119 0
M  V30 22 Cl -1.267415 -2.589262 -1.476118 0
M  V30 23 C -3.390087 -4.070598 -0.919665 0
M  V30 24 O -2.535918 -5.154301 -1.018871 0
M  V30 25 C -2.926074 -6.494108 -0.835008 0
M  V30 26 C -4.709821 -4.357183 -0.622590 0
M  V30 27 C -5.585585 -3.299107 -0.519088 0
M  V30 28 O -6.938189 -3.473263 -0.224374 0
M  V30 29 C -7.482263 -4.751121 -0.012496 0
M  V30 30 C -5.217399 -1.989275 -0.694284 0
M  V30 31 Cl -6.207913 -0.569265 -0.594251 0
M  V30 32 N -2.651692 3.232275 -2.499041 0
M  V30 33 C -1.924737 4.278639 -2.083544 0
M  V30 34 N -0.584903 4.210623 -2.004138 0
M  V30 35 C 1.392686 2.344872 0.077703 0
M  V30 36 C 1.986003 1.930425 1.253051 0
M  V30 37 C 5.154503 0.491336 2.682882 0
M  V30 38 C 5.066542 -0.715068 3.539497 0
M  V30 39 H 3.909330 -2.540014 6.833179 0
M  V30 40 H 4.681361 -1.037798 6.278079 0
M  V30 41 H 5.480649 -2.682739 6.050761 0
M  V30 42 H 2.764689 -2.633744 4.914504 0
M  V30 43 H 4.284087 -3.200262 4.217868 0
M  V30 44 H 3.044700 -0.121716 5.494595 0
M  V30 45 H 1.851064 -0.390752 4.199972 0
M  V30 46 H 3.970301 1.773710 4.567642 0
M  V30 47 H 2.379673 1.829037 3.779002 0
M  V30 48 H 5.070230 1.335988 0.089141 0
M  V30 49 H 4.005308 2.060633 -1.939666 0
M  V30 50 H 2.086906 2.970914 -3.159503 0
M  V30 51 H -0.212597 1.051536 -3.061793 0
M  V30 52 H -3.843916 0.321909 -5.056557 0
M  V30 53 H -2.045397 0.486811 -5.190307 0
M  V30 54 H -3.012357 1.962014 -5.176251 0
M  V30 55 H -2.740111 0.251652 -0.646821 0
M  V30 56 H -2.058808 -7.122002 -1.156179 0
M  V30 57 H -3.833941 -6.729132 -1.410892 0
M  V30 58 H -3.099963 -6.666862 0.241097 0
M  V30 59 H -5.097145 -5.356953 -0.466223 0
M  V30 60 H -8.585612 -4.672694 -0.125537 0
M  V30 61 H -7.182637 -5.172004 0.975078 0
M  V30 62 H -7.145723 -5.500137 -0.765008 0
M  V30 63 H -2.404753 5.212463 -1.799699 0
M  V30 64 H 0.350874 2.647288 0.004931 0
M  V30 65 H 1.313179 1.936556 2.080389 0
M  V30 66 H 5.824927 1.248038 3.188688 0
M  V30 67 H 5.657378 0.300471 1.704899 0
M  V30 68 H 5.707601 -0.590963 4.430512 0
M  V30 69 H 5.546602 -1.566000 2.965255 0
M  V30 END ATOM
M  V30 BEGIN BOND
M  V30 1 1 1 2
M  V30 2 1 2 3
M  V30 3 1 3 4
M  V30 4 1 4 5
M  V30 5 1 5 6
M  V30 6 1 6 7
M  V30 7 2 7 8
M  V30 8 1 8 9
M  V30 9 2 9 10
M  V30 10 1 10 11
M  V30 11 1 11 12
M  V30 12 2 12 13
M  V30 13 1 13 14
M  V30 14 1 14 15
M  V30 15 1 15 16
M  V30 16 1 15 17
M  V30 17 2 17 18
M  V30 18 1 17 19
M  V30 19 1 19 20
M  V30 20 2 20 21
M  V30 21 1 21 22
M  V30 22 1 21 23
M  V30 23 1 23 24
M  V30 24 1 24 25
M  V30 25 2 23 26
M  V30 26 1 26 27
M  V30 27 1 27 28
M  V30 28 1 28 29
M  V30 29 2 27 30
M  V30 30 1 30 31
M  V30 31 2 14 32
M  V30 32 1 32 33
M  V30 33 2 33 34
M  V30 34 1 10 35
M  V30 35 2 35 36
M  V30 36 1 6 37
M  V30 37 1 37 38
M  V30 38 1 38 3
M  V30 39 1 36 7
M  V30 40 1 34 12
M  V30 41 1 30 20
M  V30 42 1 1 39
M  V30 43 1 1 40
M  V30 44 1 1 41
M  V30 45 1 2 42
M  V30 46 1 2 43
M  V30 47 1 4 44
M  V30 48 1 4 45
M  V30 49 1 5 46
M  V30 50 1 5 47
M  V30 51 1 8 48
M  V30 52 1 9 49
M  V30 53 1 11 50
M  V30 54 1 13 51
M  V30 55 1 16 52
M  V30 56 1 16 53
M  V30 57 1 16 54
M  V30 58 1 19 55
M  V30 59 1 25 56
M  V30 60 1 25 57
M  V30 61 1 25 58
M  V30 62 1 26 59
M  V30 63 1 29 60
M  V30 64 1 29 61
M  V30 65 1 29 62
M  V30 66 1 33 63
M  V30 67 1 35 64
M  V30 68 1 36 65
M  V30 69 1 37 66
M  V30 70 1 37 67
M  V30 71 1 38 68
M  V30 72 1 38 69
M  V30 END BOND
M  V30 END CTAB
M  END
>  <Dataset>  (467) 
OralDrugs

>  <Ligand_Instance>  (467) 
nan

>  <PDB_ID>  (467) 
nan

>  <Standardized_SMILES>  (467) 
CCN1CCN(c2ccc(Nc3cc(N(C)C(=O)Nc4c(Cl)c(OC)cc(OC)c4Cl)ncn3)cc2)CC1

>  <Name>  (467) 
Infigratinib

>  <Pocket>  (467) 
nan

>  <ATP_Site>  (467) 
nan

>  <Peripheral>  (467) 
nan

>  <Num_H_Atoms_ProtBoundConf>  (467) 
nan

>  <Num_Resolved_Atoms>  (467) 
nan

>  <Num_Not_Resolved_Atoms>  (467) 
nan

$$$$
CHEMBL1200770
     RDKit          3D

  0  0  0  0  0  0  0  0  0  0999 V3000
M  V30 BEGIN CTAB
M  V30 COUNTS 33 33 0 0 0
M  V30 BEGIN ATOM
M  V30 1 C -1.648579 -0.152805 3.007509 0
M  V30 2 C -0.431083 -0.876595 2.519186 0
M  V30 3 O -0.231596 -1.729433 3.435734 0
M  V30 4 N 0.397069 -0.757839 1.357786 0
M  V30 5 C 1.505830 -1.656529 1.318558 0
M  V30 6 C 1.214992 -2.958825 0.642654 0
M  V30 7 C 2.447041 -3.871398 0.679698 0
M  V30 8 C 1.038995 -2.664569 -0.829222 0
M  V30 9 O 1.125614 -1.518834 -1.375170 0
M  V30 10 O 0.827474 -2.734458 -2.181261 0
M  V30 11 C -0.183694 0.294026 0.623572 0
M  V30 12 C 0.544579 1.455870 0.821451 0
M  V30 13 I 2.275860 1.657674 2.012806 0
M  V30 14 C 0.182537 2.660273 0.221230 0
M  V30 15 C -0.937520 2.706116 -0.599219 0
M  V30 16 I -1.571537 4.490277 -1.560250 0
M  V30 17 C -1.656319 1.546135 -0.789796 0
M  V30 18 N -2.805278 1.530728 -1.613704 0
M  V30 19 C -1.288633 0.363763 -0.190816 0
M  V30 20 I -2.393759 -1.383768 -0.418952 0
M  V30 21 H -1.381703 0.391894 3.920938 0
M  V30 22 H -2.507450 -0.839407 3.123946 0
M  V30 23 H -1.974480 0.571404 2.203758 0
M  V30 24 H 1.862243 -1.882499 2.349323 0
M  V30 25 H 2.348621 -1.108596 0.795025 0
M  V30 26 H 0.337921 -3.456131 1.052266 0
M  V30 27 H 2.320151 -4.624017 -0.106317 0
M  V30 28 H 2.535901 -4.317031 1.683581 0
M  V30 29 H 3.340398 -3.238843 0.532189 0
M  V30 30 H 0.310210 -3.472016 -2.656291 0
M  V30 31 H 0.682104 3.607651 0.314578 0
M  V30 32 H -2.639731 0.936677 -2.451090 0
M  V30 33 H -3.705200 2.049035 -1.408595 0
M  V30 END ATOM
M  V30 BEGIN BOND
M  V30 1 1 1 2
M  V30 2 2 2 3
M  V30 3 1 2 4
M  V30 4 1 4 5
M  V30 5 1 5 6
M  V30 6 1 6 7
M  V30 7 1 6 8
M  V30 8 2 8 9
M  V30 9 1 8 10
M  V30 10 1 4 11
M  V30 11 2 11 12
M  V30 12 1 12 13
M  V30 13 1 12 14
M  V30 14 2 14 15
M  V30 15 1 15 16
M  V30 16 1 15 17
M  V30 17 1 17 18
M  V30 18 2 17 19
M  V30 19 1 19 20
M  V30 20 1 19 11
M  V30 21 1 1 21
M  V30 22 1 1 22
M  V30 23 1 1 23
M  V30 24 1 5 24
M  V30 25 1 5 25
M  V30 26 1 6 26
M  V30 27 1 7 27
M  V30 28 1 7 28
M  V30 29 1 7 29
M  V30 30 1 10 30
M  V30 31 1 14 31
M  V30 32 1 18 32
M  V30 33 1 18 33
M  V30 END BOND
M  V30 END CTAB
M  END
>  <Dataset>  (468) 
OralDrugs

>  <Ligand_Instance>  (468) 
nan

>  <PDB_ID>  (468) 
nan

>  <Standardized_SMILES>  (468) 
CC(=O)N(CC(C)C(=O)O)c1c(I)cc(I)c(N)c1I

>  <Name>  (468) 
Iocetamic Acid

>  <Pocket>  (468) 
nan

>  <ATP_Site>  (468) 
nan

>  <Peripheral>  (468) 
nan

>  <Num_H_Atoms_ProtBoundConf>  (468) 
nan

>  <Num_Resolved_Atoms>  (468) 
nan

>  <Num_Not_Resolved_Atoms>  (468) 
nan

$$$$
CHEMBL1200455
     RDKit          3D

  0  0  0  0  0  0  0  0  0  0999 V3000
M  V30 BEGIN CTAB
M  V30 COUNTS 60 60 0 0 0
M  V30 BEGIN ATOM
M  V30 1 C 2.383834 0.351571 4.535156 0
M  V30 2 C 1.699105 0.102931 3.260790 0
M  V30 3 O 0.824850 -0.786417 3.032535 0
M  V30 4 N 1.843817 0.770129 2.026700 0
M  V30 5 C 2.731114 1.884579 1.858795 0
M  V30 6 C 4.131307 1.556021 1.454149 0
M  V30 7 O 4.780829 0.745339 2.382504 0
M  V30 8 C 4.979821 2.841825 1.410402 0
M  V30 9 O 6.242381 2.448736 1.009297 0
M  V30 10 C 0.925431 0.054646 1.252345 0
M  V30 11 C -0.319732 0.638199 1.228626 0
M  V30 12 I -0.672749 2.454297 2.225427 0
M  V30 13 C -1.402797 0.131979 0.545578 0
M  V30 14 C -2.791641 0.533841 0.442424 0
M  V30 15 O -3.570949 0.143712 -0.490069 0
M  V30 16 N -3.634979 1.358067 1.213680 0
M  V30 17 C -5.004552 1.678574 0.999753 0
M  V30 18 C -5.956468 0.513421 1.014964 0
M  V30 19 O -5.915767 -0.157405 2.249234 0
M  V30 20 C -7.382351 0.969810 0.717705 0
M  V30 21 O -7.356497 1.619236 -0.502631 0
M  V30 22 C -1.169896 -1.050084 -0.154216 0
M  V30 23 I -2.659070 -1.977187 -1.315966 0
M  V30 24 C 0.037298 -1.698077 -0.183704 0
M  V30 25 C 0.494862 -2.938141 -0.767810 0
M  V30 26 O 1.734436 -3.237760 -0.939112 0
M  V30 27 N -0.104969 -4.108335 -1.286457 0
M  V30 28 C 0.574256 -5.239601 -1.838223 0
M  V30 29 C 1.420991 -4.971994 -3.036648 0
M  V30 30 O 0.660250 -4.445531 -4.104958 0
M  V30 31 C 1.927377 -6.317621 -3.579943 0
M  V30 32 O 2.705574 -6.989936 -2.655695 0
M  V30 33 C 1.082950 -1.108772 0.542934 0
M  V30 34 I 3.045305 -1.924014 0.681866 0
M  V30 35 H 2.458713 1.448627 4.783138 0
M  V30 36 H 3.392035 -0.062321 4.614372 0
M  V30 37 H 1.767177 -0.165315 5.327528 0
M  V30 38 H 2.284285 2.596741 1.106438 0
M  V30 39 H 2.739364 2.500770 2.804668 0
M  V30 40 H 4.157418 1.135924 0.440479 0
M  V30 41 H 5.740277 0.720413 2.090048 0
M  V30 42 H 5.019027 3.260074 2.429481 0
M  V30 43 H 4.530363 3.594655 0.738632 0
M  V30 44 H 6.328530 2.367421 0.022959 0
M  V30 45 H -3.157813 1.749218 2.054880 0
M  V30 46 H -5.347173 2.342675 1.845904 0
M  V30 47 H -5.176473 2.303430 0.093970 0
M  V30 48 H -5.698939 -0.197681 0.242262 0
M  V30 49 H -5.550470 -1.084443 2.138076 0
M  V30 50 H -8.039588 0.083091 0.660735 0
M  V30 51 H -7.681590 1.634918 1.540772 0
M  V30 52 H -6.636823 1.252006 -1.059999 0
M  V30 53 H -1.142737 -4.069166 -1.203670 0
M  V30 54 H 1.170950 -5.798254 -1.077087 0
M  V30 55 H -0.207903 -5.964811 -2.158801 0
M  V30 56 H 2.281574 -4.326585 -2.895461 0
M  V30 57 H -0.185348 -4.950746 -4.241028 0
M  V30 58 H 1.113501 -6.969079 -3.899289 0
M  V30 59 H 2.552775 -6.146277 -4.496678 0
M  V30 60 H 2.962174 -6.446282 -1.866890 0
M  V30 END ATOM
M  V30 BEGIN BOND
M  V30 1 1 1 2
M  V30 2 2 2 3
M  V30 3 1 2 4
M  V30 4 1 4 5
M  V30 5 1 5 6
M  V30 6 1 6 7
M  V30 7 1 6 8
M  V30 8 1 8 9
M  V30 9 1 4 10
M  V30 10 2 10 11
M  V30 11 1 11 12
M  V30 12 1 11 13
M  V30 13 1 13 14
M  V30 14 2 14 15
M  V30 15 1 14 16
M  V30 16 1 16 17
M  V30 17 1 17 18
M  V30 18 1 18 19
M  V30 19 1 18 20
M  V30 20 1 20 21
M  V30 21 2 13 22
M  V30 22 1 22 23
M  V30 23 1 22 24
M  V30 24 1 24 25
M  V30 25 2 25 26
M  V30 26 1 25 27
M  V30 27 1 27 28
M  V30 28 1 28 29
M  V30 29 1 29 30
M  V30 30 1 29 31
M  V30 31 1 31 32
M  V30 32 2 24 33
M  V30 33 1 33 34
M  V30 34 1 33 10
M  V30 35 1 1 35
M  V30 36 1 1 36
M  V30 37 1 1 37
M  V30 38 1 5 38
M  V30 39 1 5 39
M  V30 40 1 6 40
M  V30 41 1 7 41
M  V30 42 1 8 42
M  V30 43 1 8 43
M  V30 44 1 9 44
M  V30 45 1 16 45
M  V30 46 1 17 46
M  V30 47 1 17 47
M  V30 48 1 18 48
M  V30 49 1 19 49
M  V30 50 1 20 50
M  V30 51 1 20 51
M  V30 52 1 21 52
M  V30 53 1 27 53
M  V30 54 1 28 54
M  V30 55 1 28 55
M  V30 56 1 29 56
M  V30 57 1 30 57
M  V30 58 1 31 58
M  V30 59 1 31 59
M  V30 60 1 32 60
M  V30 END BOND
M  V30 END CTAB
M  END
>  <Dataset>  (469) 
OralDrugs

>  <Ligand_Instance>  (469) 
nan

>  <PDB_ID>  (469) 
nan

>  <Standardized_SMILES>  (469) 
CC(=O)N(CC(O)CO)c1c(I)c(C(=O)NCC(O)CO)c(I)c(C(=O)NCC(O)CO)c1I

>  <Name>  (469) 
Iohexol

>  <Pocket>  (469) 
nan

>  <ATP_Site>  (469) 
nan

>  <Peripheral>  (469) 
nan

>  <Num_H_Atoms_ProtBoundConf>  (469) 
nan

>  <Num_Resolved_Atoms>  (469) 
nan

>  <Num_Not_Resolved_Atoms>  (469) 
nan

$$$$
CHEMBL867
     RDKit          3D

  0  0  0  0  0  0  0  0  0  0999 V3000
M  V30 BEGIN CTAB
M  V30 COUNTS 29 29 0 0 0
M  V30 BEGIN ATOM
M  V30 1 C -3.171849 -1.938620 2.223591 0
M  V30 2 C -1.699179 -2.356094 2.250398 0
M  V30 3 C -0.916061 -1.525534 1.245879 0
M  V30 4 C 0.541955 -1.927675 1.262392 0
M  V30 5 C 1.258053 -1.103000 0.280929 0
M  V30 6 C 1.272465 -1.236352 -1.075914 0
M  V30 7 I 0.153516 -2.819831 -1.887988 0
M  V30 8 C 1.965378 -0.416301 -1.923061 0
M  V30 9 C 2.707396 0.622391 -1.398583 0
M  V30 10 I 3.792749 1.916264 -2.652784 0
M  V30 11 C 2.711492 0.782672 -0.016499 0
M  V30 12 N 3.501521 1.880299 0.473235 0
M  V30 13 C 2.000624 -0.060474 0.835923 0
M  V30 14 I 2.167598 0.390067 2.895486 0
M  V30 15 C -1.103969 -0.077232 1.478583 0
M  V30 16 O -1.611015 0.651068 0.557891 0
M  V30 17 O -1.218207 1.254690 1.839942 0
M  V30 18 H -3.399394 -1.639123 1.180163 0
M  V30 19 H -3.814673 -2.771686 2.534846 0
M  V30 20 H -3.283381 -1.028729 2.843766 0
M  V30 21 H -1.621267 -3.432836 2.012904 0
M  V30 22 H -1.310198 -2.126189 3.260859 0
M  V30 23 H -1.310646 -1.786346 0.245051 0
M  V30 24 H 0.991406 -1.913865 2.262832 0
M  V30 25 H 0.574583 -2.979553 0.872369 0
M  V30 26 H 1.914391 -0.603937 -2.996559 0
M  V30 27 H 4.467702 1.968235 0.074695 0
M  V30 28 H 3.448632 2.683137 1.137175 0
M  V30 29 H -1.286724 1.542154 2.831171 0
M  V30 END ATOM
M  V30 BEGIN BOND
M  V30 1 1 1 2
M  V30 2 1 2 3
M  V30 3 1 3 4
M  V30 4 1 4 5
M  V30 5 2 5 6
M  V30 6 1 6 7
M  V30 7 1 6 8
M  V30 8 2 8 9
M  V30 9 1 9 10
M  V30 10 1 9 11
M  V30 11 1 11 12
M  V30 12 2 11 13
M  V30 13 1 13 14
M  V30 14 1 3 15
M  V30 15 2 15 16
M  V30 16 1 15 17
M  V30 17 1 13 5
M  V30 18 1 1 18
M  V30 19 1 1 19
M  V30 20 1 1 20
M  V30 21 1 2 21
M  V30 22 1 2 22
M  V30 23 1 3 23
M  V30 24 1 4 24
M  V30 25 1 4 25
M  V30 26 1 8 26
M  V30 27 1 12 27
M  V30 28 1 12 28
M  V30 29 1 17 29
M  V30 END BOND
M  V30 END CTAB
M  END
>  <Dataset>  (470) 
OralDrugs

>  <Ligand_Instance>  (470) 
nan

>  <PDB_ID>  (470) 
nan

>  <Standardized_SMILES>  (470) 
CCC(Cc1c(I)cc(I)c(N)c1I)C(=O)O

>  <Name>  (470) 
Iopanoic Acid

>  <Pocket>  (470) 
nan

>  <ATP_Site>  (470) 
nan

>  <Peripheral>  (470) 
nan

>  <Num_H_Atoms_ProtBoundConf>  (470) 
nan

>  <Num_Resolved_Atoms>  (470) 
nan

>  <Num_Not_Resolved_Atoms>  (470) 
nan

$$$$
CHEMBL1201243
     RDKit          3D

  0  0  0  0  0  0  0  0  0  0999 V3000
M  V30 BEGIN CTAB
M  V30 COUNTS 32 32 0 0 0
M  V30 BEGIN ATOM
M  V30 1 C -1.533601 -2.301873 4.016641 0
M  V30 2 N -1.038310 -2.980461 2.836327 0
M  V30 3 C -1.460141 -4.366631 2.620036 0
M  V30 4 C -0.180184 -2.367097 1.898563 0
M  V30 5 N 0.680792 -2.769875 0.997020 0
M  V30 6 C 1.351801 -1.721386 0.242934 0
M  V30 7 C 2.716068 -1.526948 0.276557 0
M  V30 8 I 3.915481 -2.810909 1.420176 0
M  V30 9 C 3.223093 -0.480641 -0.457261 0
M  V30 10 C 2.355996 0.296019 -1.167147 0
M  V30 11 I 3.233539 1.795678 -2.364104 0
M  V30 12 C 0.979687 0.170636 -1.251628 0
M  V30 13 C -0.012973 1.011863 -1.895632 0
M  V30 14 C -0.666707 2.029071 -1.028787 0
M  V30 15 C 0.128251 3.024319 -0.334064 0
M  V30 16 O 1.265447 3.495067 -0.054219 0
M  V30 17 O -0.725709 3.885592 0.362828 0
M  V30 18 C 0.498770 -0.894422 -0.504806 0
M  V30 19 I -1.588945 -1.293816 -0.501584 0
M  V30 20 H -2.541494 -1.849507 3.746800 0
M  V30 21 H -0.831326 -1.496933 4.382846 0
M  V30 22 H -1.724595 -2.997438 4.842445 0
M  V30 23 H -2.335005 -4.360404 1.941521 0
M  V30 24 H -1.760168 -4.783527 3.608113 0
M  V30 25 H -0.633149 -4.957702 2.181419 0
M  V30 26 H -0.282112 -1.266838 1.964705 0
M  V30 27 H 4.284454 -0.297161 -0.453362 0
M  V30 28 H -0.856925 0.344788 -2.266214 0
M  V30 29 H 0.369294 1.539322 -2.803452 0
M  V30 30 H -1.376531 2.615223 -1.715038 0
M  V30 31 H -1.334369 1.511885 -0.259424 0
M  V30 32 H -0.422543 4.459808 1.125165 0
M  V30 END ATOM
M  V30 BEGIN BOND
M  V30 1 1 1 2
M  V30 2 1 2 3
M  V30 3 1 2 4
M  V30 4 2 4 5
M  V30 5 1 5 6
M  V30 6 2 6 7
M  V30 7 1 7 8
M  V30 8 1 7 9
M  V30 9 2 9 10
M  V30 10 1 10 11
M  V30 11 1 10 12
M  V30 12 1 12 13
M  V30 13 1 13 14
M  V30 14 1 14 15
M  V30 15 2 15 16
M  V30 16 1 15 17
M  V30 17 2 12 18
M  V30 18 1 18 19
M  V30 19 1 18 6
M  V30 20 1 1 20
M  V30 21 1 1 21
M  V30 22 1 1 22
M  V30 23 1 3 23
M  V30 24 1 3 24
M  V30 25 1 3 25
M  V30 26 1 4 26
M  V30 27 1 9 27
M  V30 28 1 13 28
M  V30 29 1 13 29
M  V30 30 1 14 30
M  V30 31 1 14 31
M  V30 32 1 17 32
M  V30 END BOND
M  V30 END CTAB
M  END
>  <Dataset>  (471) 
OralDrugs

>  <Ligand_Instance>  (471) 
nan

>  <PDB_ID>  (471) 
nan

>  <Standardized_SMILES>  (471) 
CN(C)/C=N/c1c(I)cc(I)c(CCC(=O)O)c1I

>  <Name>  (471) 
Ipodate

>  <Pocket>  (471) 
nan

>  <ATP_Site>  (471) 
nan

>  <Peripheral>  (471) 
nan

>  <Num_H_Atoms_ProtBoundConf>  (471) 
nan

>  <Num_Resolved_Atoms>  (471) 
nan

>  <Num_Not_Resolved_Atoms>  (471) 
nan

$$$$
CHEMBL2018096
     RDKit          3D

  0  0  0  0  0  0  0  0  0  0999 V3000
M  V30 BEGIN CTAB
M  V30 COUNTS 49 52 0 0 0
M  V30 BEGIN ATOM
M  V30 1 O 0.784556 -6.009203 -2.000950 0
M  V30 2 C -0.052162 -5.045249 -2.511402 0
M  V30 3 C -0.647605 -4.284382 -1.363072 0 CFG=1
M  V30 4 O 0.319792 -3.663070 -0.577875 0
M  V30 5 C -0.181527 -3.397934 0.688142 0 CFG=1
M  V30 6 C 0.701218 -2.394843 1.320660 0
M  V30 7 C 1.124561 -2.550778 2.645973 0
M  V30 8 C 1.946055 -1.666238 3.312325 0
M  V30 9 C 2.391042 -0.548828 2.649124 0
M  V30 10 F 3.195487 0.303309 3.323824 0
M  V30 11 C 2.007712 -0.345529 1.349296 0
M  V30 12 C 2.484222 0.870350 0.606279 0
M  V30 13 C 1.751845 2.036398 1.038595 0
M  V30 14 C 1.879596 2.992952 1.983843 0
M  V30 15 C 0.952704 3.996856 2.115930 0
M  V30 16 C 0.957670 5.030518 3.028771 0
M  V30 17 C -0.060617 5.925568 2.990409 0
M  V30 18 C -1.129416 5.920845 2.119804 0
M  V30 19 C -1.142155 4.892375 1.205165 0
M  V30 20 C -0.111564 3.961063 1.221940 0
M  V30 21 S 0.205134 2.498213 0.191458 0
M  V30 22 C 1.177027 -1.254665 0.698951 0
M  V30 23 C -1.633201 -3.104774 0.735277 0 CFG=2
M  V30 24 O -2.347554 -4.127626 1.360420 0
M  V30 25 C -2.323261 -2.770408 -0.532585 0 CFG=1
M  V30 26 O -2.691043 -1.404998 -0.601239 0
M  V30 27 C -1.579159 -3.169264 -1.789478 0 CFG=2
M  V30 28 O -2.442087 -3.573354 -2.800189 0
M  V30 29 H 0.647458 -6.144230 -1.029745 0
M  V30 30 H -0.893733 -5.560151 -3.034540 0
M  V30 31 H 0.407599 -4.382271 -3.268345 0
M  V30 32 H -1.164447 -5.000484 -0.699532 0
M  V30 33 H -0.005593 -4.352025 1.252764 0
M  V30 34 H 0.773266 -3.434039 3.170638 0
M  V30 35 H 2.232166 -1.851069 4.334927 0
M  V30 36 H 2.359334 0.714465 -0.477755 0
M  V30 37 H 3.562490 1.045233 0.800293 0
M  V30 38 H 2.767404 2.861447 2.587166 0
M  V30 39 H 1.745884 5.149717 3.772624 0
M  V30 40 H -0.047556 6.740396 3.717554 0
M  V30 41 H -1.943768 6.628875 2.082542 0
M  V30 42 H -1.887007 4.713464 0.444108 0
M  V30 43 H 0.863555 -1.104532 -0.338074 0
M  V30 44 H -1.769326 -2.219877 1.423922 0
M  V30 45 H -3.094430 -3.771927 1.902578 0
M  V30 46 H -3.325959 -3.287280 -0.625578 0
M  V30 47 H -2.177227 -0.853337 0.039521 0
M  V30 48 H -0.989352 -2.312128 -2.186837 0
M  V30 49 H -3.005129 -2.805000 -3.032028 0
M  V30 END ATOM
M  V30 BEGIN BOND
M  V30 1 1 1 2
M  V30 2 1 2 3
M  V30 3 1 3 4
M  V30 4 1 4 5
M  V30 5 1 5 6
M  V30 6 2 6 7
M  V30 7 1 7 8
M  V30 8 2 8 9
M  V30 9 1 9 10
M  V30 10 1 9 11
M  V30 11 1 11 12
M  V30 12 1 12 13
M  V30 13 2 13 14
M  V30 14 1 14 15
M  V30 15 2 15 16
M  V30 16 1 16 17
M  V30 17 2 17 18
M  V30 18 1 18 19
M  V30 19 2 19 20
M  V30 20 1 20 21
M  V30 21 2 11 22
M  V30 22 1 5 23
M  V30 23 1 23 24
M  V30 24 1 23 25
M  V30 25 1 25 26
M  V30 26 1 25 27
M  V30 27 1 27 28
M  V30 28 1 27 3
M  V30 29 1 22 6
M  V30 30 1 21 13
M  V30 31 1 20 15
M  V30 32 1 1 29
M  V30 33 1 2 30
M  V30 34 1 2 31
M  V30 35 1 3 32 CFG=1
M  V30 36 1 5 33 CFG=1
M  V30 37 1 7 34
M  V30 38 1 8 35
M  V30 39 1 12 36
M  V30 40 1 12 37
M  V30 41 1 14 38
M  V30 42 1 16 39
M  V30 43 1 17 40
M  V30 44 1 18 41
M  V30 45 1 19 42
M  V30 46 1 22 43
M  V30 47 1 23 44 CFG=1
M  V30 48 1 24 45
M  V30 49 1 25 46 CFG=1
M  V30 50 1 26 47
M  V30 51 1 27 48 CFG=3
M  V30 52 1 28 49
M  V30 END BOND
M  V30 END CTAB
M  END
>  <Dataset>  (472) 
OralDrugs

>  <Ligand_Instance>  (472) 
nan

>  <PDB_ID>  (472) 
nan

>  <Standardized_SMILES>  (472) 
OC[C@H]1O[C@@H](c2ccc(F)c(Cc3cc4ccccc4s3)c2)[C@H](O)[C@@H](O)[C@@H]1O

>  <Name>  (472) 
Ipragliflozin

>  <Pocket>  (472) 
nan

>  <ATP_Site>  (472) 
nan

>  <Peripheral>  (472) 
nan

>  <Num_H_Atoms_ProtBoundConf>  (472) 
nan

>  <Num_Resolved_Atoms>  (472) 
nan

>  <Num_Not_Resolved_Atoms>  (472) 
nan

$$$$
CHEMBL92401
     RDKit          3D

  0  0  0  0  0  0  0  0  0  0999 V3000
M  V30 BEGIN CTAB
M  V30 COUNTS 26 26 0 0 0
M  V30 BEGIN ATOM
M  V30 1 C 0.948579 0.543593 4.439986 0
M  V30 2 C 0.543566 -0.124350 3.151021 0
M  V30 3 C 0.527756 -1.622930 3.217414 0
M  V30 4 N 1.371266 0.319407 2.038981 0
M  V30 5 N 1.033096 -0.268945 0.837215 0
M  V30 6 C 0.070612 0.303929 -0.042560 0
M  V30 7 O -0.414305 1.384714 0.409652 0
M  V30 8 C -0.307820 -0.296351 -1.321605 0
M  V30 9 C 0.190653 -1.468243 -1.855720 0
M  V30 10 C -0.251299 -1.930302 -3.079050 0
M  V30 11 N -1.183214 -1.221604 -3.756065 0
M  V30 12 C -1.692970 -0.079920 -3.274010 0
M  V30 13 C -1.265405 0.404996 -2.047651 0
M  V30 14 H 1.083098 -0.243782 5.199889 0
M  V30 15 H 0.164095 1.274389 4.730522 0
M  V30 16 H 1.928606 1.030048 4.252824 0
M  V30 17 H -0.499039 0.199551 2.862396 0
M  V30 18 H 1.356260 -2.043542 3.815369 0
M  V30 19 H -0.473343 -1.956237 3.618157 0
M  V30 20 H 0.635282 -2.015979 2.187296 0
M  V30 21 H 1.513352 1.332937 2.022065 0
M  V30 22 H 1.492117 -1.179445 0.536237 0
M  V30 23 H 0.936666 -1.983001 -1.254271 0
M  V30 24 H 0.202579 -2.860835 -3.410982 0
M  V30 25 H -2.439374 0.437086 -3.873475 0
M  V30 26 H -1.694856 1.327887 -1.685491 0
M  V30 END ATOM
M  V30 BEGIN BOND
M  V30 1 1 1 2
M  V30 2 1 2 3
M  V30 3 1 2 4
M  V30 4 1 4 5
M  V30 5 1 5 6
M  V30 6 2 6 7
M  V30 7 1 6 8
M  V30 8 2 8 9
M  V30 9 1 9 10
M  V30 10 2 10 11
M  V30 11 1 11 12
M  V30 12 2 12 13
M  V30 13 1 13 8
M  V30 14 1 1 14
M  V30 15 1 1 15
M  V30 16 1 1 16
M  V30 17 1 2 17
M  V30 18 1 3 18
M  V30 19 1 3 19
M  V30 20 1 3 20
M  V30 21 1 4 21
M  V30 22 1 5 22
M  V30 23 1 9 23
M  V30 24 1 10 24
M  V30 25 1 12 25
M  V30 26 1 13 26
M  V30 END BOND
M  V30 END CTAB
M  END
>  <Dataset>  (473) 
OralDrugs

>  <Ligand_Instance>  (473) 
nan

>  <PDB_ID>  (473) 
nan

>  <Standardized_SMILES>  (473) 
CC(C)NNC(=O)c1ccncc1

>  <Name>  (473) 
Iproniazid

>  <Pocket>  (473) 
nan

>  <ATP_Site>  (473) 
nan

>  <Peripheral>  (473) 
nan

>  <Num_H_Atoms_ProtBoundConf>  (473) 
nan

>  <Num_Resolved_Atoms>  (473) 
nan

>  <Num_Not_Resolved_Atoms>  (473) 
nan

$$$$
CHEMBL1513
     RDKit          3D

  0  0  0  0  0  0  0  0  0  0999 V3000
M  V30 BEGIN CTAB
M  V30 COUNTS 60 64 0 0 0
M  V30 BEGIN ATOM
M  V30 1 C 3.211094 -2.668243 2.580356 0
M  V30 2 C 3.335208 -1.273122 1.998780 0
M  V30 3 C 2.862090 -0.300661 3.024964 0
M  V30 4 C 2.921245 1.119545 2.621953 0
M  V30 5 C 2.169030 1.532447 1.439045 0
M  V30 6 N 2.803710 2.111858 0.450455 0
M  V30 7 C 1.951839 2.459028 -0.633086 0
M  V30 8 C 2.291989 1.751756 -1.915583 0
M  V30 9 C 1.797533 2.705697 -2.978426 0
M  V30 10 C 2.238087 4.050216 -2.438872 0
M  V30 11 C 1.990539 3.941790 -0.955617 0
M  V30 12 C 0.598002 2.104731 -0.208912 0
M  V30 13 O -0.534997 2.235501 -0.732794 0
M  V30 14 N 0.794915 1.502592 1.070980 0
M  V30 15 C -0.267276 0.969336 1.929937 0
M  V30 16 C -0.843403 -0.278670 1.422775 0
M  V30 17 C -2.027943 -0.140947 0.694867 0
M  V30 18 C -2.723245 -1.179432 0.116234 0
M  V30 19 C -2.286147 -2.454902 0.218363 0
M  V30 20 C -3.019756 -3.520369 -0.434328 0
M  V30 21 C -2.782160 -3.403498 -1.807015 0
M  V30 22 C -3.330812 -4.321958 -2.713657 0
M  V30 23 C -4.100524 -5.322330 -2.172955 0
M  V30 24 C -4.327138 -5.425338 -0.817846 0
M  V30 25 C -3.791595 -4.524412 0.083319 0
M  V30 26 C -4.039299 -4.559988 1.511081 0
M  V30 27 N -4.617749 -5.658502 1.998147 0
M  V30 28 N -4.755118 -5.579671 3.300594 0
M  V30 29 N -4.260441 -4.411844 3.678690 0
M  V30 30 N -3.824046 -3.790956 2.578050 0
M  V30 31 C -1.103326 -2.644645 0.938801 0
M  V30 32 C -0.433408 -1.586023 1.504784 0
M  V30 33 H 3.127363 -3.464368 1.824787 0
M  V30 34 H 4.069243 -2.905285 3.239156 0
M  V30 35 H 2.299177 -2.755993 3.234887 0
M  V30 36 H 2.828597 -1.185901 1.010840 0
M  V30 37 H 4.423264 -1.135062 1.753728 0
M  V30 38 H 1.930711 -0.647022 3.462365 0
M  V30 39 H 3.612787 -0.407899 3.886168 0
M  V30 40 H 4.011282 1.384822 2.524186 0
M  V30 41 H 2.614226 1.765363 3.514465 0
M  V30 42 H 3.391463 1.679150 -2.072083 0
M  V30 43 H 1.786029 0.784758 -2.059990 0
M  V30 44 H 0.687199 2.683799 -3.071445 0
M  V30 45 H 2.251330 2.473836 -3.970874 0
M  V30 46 H 3.285285 4.261314 -2.672651 0
M  V30 47 H 1.605222 4.873550 -2.877444 0
M  V30 48 H 1.007141 4.408904 -0.716619 0
M  V30 49 H 2.769462 4.467631 -0.365035 0
M  V30 50 H -1.053387 1.749654 1.961155 0
M  V30 51 H 0.089814 0.889439 2.982342 0
M  V30 52 H -2.491890 0.841651 0.542504 0
M  V30 53 H -3.646272 -1.001808 -0.438519 0
M  V30 54 H -2.189736 -2.659223 -2.354027 0
M  V30 55 H -3.198932 -4.305235 -3.784866 0
M  V30 56 H -4.577688 -6.093341 -2.799312 0
M  V30 57 H -4.944190 -6.232191 -0.441642 0
M  V30 58 H -3.390714 -2.857606 2.496631 0
M  V30 59 H -0.713180 -3.643580 1.050780 0
M  V30 60 H 0.476169 -1.753307 2.052296 0
M  V30 END ATOM
M  V30 BEGIN BOND
M  V30 1 1 1 2
M  V30 2 1 2 3
M  V30 3 1 3 4
M  V30 4 1 4 5
M  V30 5 2 5 6
M  V30 6 1 6 7
M  V30 7 1 7 8
M  V30 8 1 8 9
M  V30 9 1 9 10
M  V30 10 1 10 11
M  V30 11 1 7 12
M  V30 12 2 12 13
M  V30 13 1 12 14
M  V30 14 1 14 15
M  V30 15 1 15 16
M  V30 16 2 16 17
M  V30 17 1 17 18
M  V30 18 2 18 19
M  V30 19 1 19 20
M  V30 20 2 20 21
M  V30 21 1 21 22
M  V30 22 2 22 23
M  V30 23 1 23 24
M  V30 24 2 24 25
M  V30 25 1 25 26
M  V30 26 2 26 27
M  V30 27 1 27 28
M  V30 28 2 28 29
M  V30 29 1 29 30
M  V30 30 1 19 31
M  V30 31 2 31 32
M  V30 32 1 14 5
M  V30 33 1 32 16
M  V30 34 1 11 7
M  V30 35 1 25 20
M  V30 36 1 30 26
M  V30 37 1 1 33
M  V30 38 1 1 34
M  V30 39 1 1 35
M  V30 40 1 2 36
M  V30 41 1 2 37
M  V30 42 1 3 38
M  V30 43 1 3 39
M  V30 44 1 4 40
M  V30 45 1 4 41
M  V30 46 1 8 42
M  V30 47 1 8 43
M  V30 48 1 9 44
M  V30 49 1 9 45
M  V30 50 1 10 46
M  V30 51 1 10 47
M  V30 52 1 11 48
M  V30 53 1 11 49
M  V30 54 1 15 50
M  V30 55 1 15 51
M  V30 56 1 17 52
M  V30 57 1 18 53
M  V30 58 1 21 54
M  V30 59 1 22 55
M  V30 60 1 23 56
M  V30 61 1 24 57
M  V30 62 1 30 58
M  V30 63 1 31 59
M  V30 64 1 32 60
M  V30 END BOND
M  V30 END CTAB
M  END
>  <Dataset>  (474) 
OralDrugs

>  <Ligand_Instance>  (474) 
nan

>  <PDB_ID>  (474) 
nan

>  <Standardized_SMILES>  (474) 
CCCCC1=NC2(CCCC2)C(=O)N1Cc1ccc(-c2ccccc2-c2nnn[nH]2)cc1

>  <Name>  (474) 
Irbesartan

>  <Pocket>  (474) 
nan

>  <ATP_Site>  (474) 
nan

>  <Peripheral>  (474) 
nan

>  <Num_H_Atoms_ProtBoundConf>  (474) 
nan

>  <Num_Resolved_Atoms>  (474) 
nan

>  <Num_Not_Resolved_Atoms>  (474) 
nan

$$$$
CHEMBL1201168
     RDKit          3D

  0  0  0  0  0  0  0  0  0  0999 V3000
M  V30 BEGIN CTAB
M  V30 COUNTS 30 31 0 0 0
M  V30 BEGIN ATOM
M  V30 1 C -1.165502 -2.444395 6.317606 0
M  V30 2 C -0.564208 -2.041084 5.016643 0
M  V30 3 C -0.884895 -2.606525 3.780975 0
M  V30 4 C -0.126716 -1.975543 2.814975 0
M  V30 5 C -0.173623 -2.284433 1.388681 0
M  V30 6 O -0.970143 -3.193980 1.045065 0
M  V30 7 N 0.652456 -1.572497 0.470986 0
M  V30 8 N 0.524109 -1.948049 -0.845329 0
M  V30 9 C 1.323019 -1.270188 -1.796492 0
M  V30 10 C 1.106577 0.177793 -1.875158 0
M  V30 11 C 1.768722 1.162764 -1.149456 0
M  V30 12 C 1.459010 2.501183 -1.327282 0
M  V30 13 C 0.492139 2.922461 -2.219934 0
M  V30 14 C -0.189776 1.983035 -2.960586 0
M  V30 15 C 0.145289 0.660264 -2.756947 0
M  V30 16 N 0.608107 -1.071735 3.488337 0
M  V30 17 O 0.342337 -1.123580 4.759574 0
M  V30 18 H -1.540695 -3.496190 6.209202 0
M  V30 19 H -0.473309 -2.340247 7.168433 0
M  V30 20 H -2.090446 -1.841117 6.532220 0
M  V30 21 H -1.619189 -3.410813 3.652571 0
M  V30 22 H 1.298903 -0.824588 0.804363 0
M  V30 23 H 0.333942 -2.934082 -1.025923 0
M  V30 24 H 2.396631 -1.528839 -1.564835 0
M  V30 25 H 1.110482 -1.699888 -2.789115 0
M  V30 26 H 2.520386 0.808665 -0.458174 0
M  V30 27 H 2.016873 3.217491 -0.726038 0
M  V30 28 H 0.260688 3.958913 -2.349554 0
M  V30 29 H -0.949258 2.257999 -3.666814 0
M  V30 30 H -0.409033 -0.059936 -3.355089 0
M  V30 END ATOM
M  V30 BEGIN BOND
M  V30 1 1 1 2
M  V30 2 2 2 3
M  V30 3 1 3 4
M  V30 4 1 4 5
M  V30 5 2 5 6
M  V30 6 1 5 7
M  V30 7 1 7 8
M  V30 8 1 8 9
M  V30 9 1 9 10
M  V30 10 2 10 11
M  V30 11 1 11 12
M  V30 12 2 12 13
M  V30 13 1 13 14
M  V30 14 2 14 15
M  V30 15 2 4 16
M  V30 16 1 16 17
M  V30 17 1 17 2
M  V30 18 1 15 10
M  V30 19 1 1 18
M  V30 20 1 1 19
M  V30 21 1 1 20
M  V30 22 1 3 21
M  V30 23 1 7 22
M  V30 24 1 8 23
M  V30 25 1 9 24
M  V30 26 1 9 25
M  V30 27 1 11 26
M  V30 28 1 12 27
M  V30 29 1 13 28
M  V30 30 1 14 29
M  V30 31 1 15 30
M  V30 END BOND
M  V30 END CTAB
M  END
>  <Dataset>  (475) 
OralDrugs

>  <Ligand_Instance>  (475) 
nan

>  <PDB_ID>  (475) 
nan

>  <Standardized_SMILES>  (475) 
Cc1cc(C(=O)NNCc2ccccc2)no1

>  <Name>  (475) 
Isocarboxazid

>  <Pocket>  (475) 
nan

>  <ATP_Site>  (475) 
nan

>  <Peripheral>  (475) 
nan

>  <Num_H_Atoms_ProtBoundConf>  (475) 
nan

>  <Num_Resolved_Atoms>  (475) 
nan

>  <Num_Not_Resolved_Atoms>  (475) 
nan

$$$$
CHEMBL64
     RDKit          3D

  0  0  0  0  0  0  0  0  0  0999 V3000
M  V30 BEGIN CTAB
M  V30 COUNTS 17 17 0 0 0
M  V30 BEGIN ATOM
M  V30 1 N -0.911455 -1.996617 -0.640117 0
M  V30 2 N -0.135275 -0.896735 -0.250491 0
M  V30 3 C 0.481015 -0.748682 1.011462 0
M  V30 4 O 0.349726 -1.647062 1.881168 0
M  V30 5 C 1.283017 0.416711 1.376068 0
M  V30 6 C 1.835474 0.447109 2.641653 0
M  V30 7 C 2.618585 1.520247 3.082795 0
M  V30 8 N 2.825572 2.545509 2.225375 0
M  V30 9 C 2.282555 2.497885 1.004720 0
M  V30 10 C 1.503935 1.470978 0.513476 0
M  V30 11 H -1.932940 -1.755323 -0.673038 0
M  V30 12 H -0.787734 -2.834565 -0.044989 0
M  V30 13 H -0.034396 -0.163578 -0.975057 0
M  V30 14 H 1.722842 -0.324726 3.389196 0
M  V30 15 H 3.062547 1.565022 4.073105 0
M  V30 16 H 2.468174 3.346713 0.328533 0
M  V30 17 H 1.085309 1.464169 -0.466832 0
M  V30 END ATOM
M  V30 BEGIN BOND
M  V30 1 1 1 2
M  V30 2 1 2 3
M  V30 3 2 3 4
M  V30 4 1 3 5
M  V30 5 2 5 6
M  V30 6 1 6 7
M  V30 7 2 7 8
M  V30 8 1 8 9
M  V30 9 2 9 10
M  V30 10 1 10 5
M  V30 11 1 1 11
M  V30 12 1 1 12
M  V30 13 1 2 13
M  V30 14 1 6 14
M  V30 15 1 7 15
M  V30 16 1 9 16
M  V30 17 1 10 17
M  V30 END BOND
M  V30 END CTAB
M  END
>  <Dataset>  (476) 
OralDrugs

>  <Ligand_Instance>  (476) 
nan

>  <PDB_ID>  (476) 
nan

>  <Standardized_SMILES>  (476) 
NNC(=O)c1ccncc1

>  <Name>  (476) 
Isoniazid

>  <Pocket>  (476) 
nan

>  <ATP_Site>  (476) 
nan

>  <Peripheral>  (476) 
nan

>  <Num_H_Atoms_ProtBoundConf>  (476) 
nan

>  <Num_Resolved_Atoms>  (476) 
nan

>  <Num_Not_Resolved_Atoms>  (476) 
nan

$$$$
CHEMBL1201232
     RDKit          3D

  0  0  0  0  0  0  0  0  0  0999 V3000
M  V30 BEGIN CTAB
M  V30 COUNTS 59 60 0 0 0
M  V30 BEGIN ATOM
M  V30 1 C 0.701801 -2.809078 3.246007 0
M  V30 2 C 0.339670 -3.273900 1.844756 0
M  V30 3 C -1.126194 -3.110752 1.633899 0
M  V30 4 N 1.187280 -2.723435 0.839466 0 CHG=1 VAL=4
M  V30 5 C 2.495232 -2.479510 1.469161 0
M  V30 6 C 0.747106 -1.545731 0.195415 0
M  V30 7 C 0.357364 -0.393461 1.076702 0
M  V30 8 C -0.066662 0.725464 0.133398 0
M  V30 9 C 1.156697 0.995232 -0.698647 0
M  V30 10 N 2.278075 1.378927 0.120778 0
M  V30 11 O 1.767911 1.071917 -1.787612 0
M  V30 12 C -0.358622 1.981243 0.839106 0
M  V30 13 C -0.544943 3.109790 0.074791 0
M  V30 14 C -0.820670 4.297740 0.741721 0
M  V30 15 C -0.912042 4.380746 2.115859 0
M  V30 16 C -0.726360 3.248650 2.899075 0
M  V30 17 C -0.453422 2.077166 2.229591 0
M  V30 18 C -1.235910 0.382344 -0.686646 0
M  V30 19 C -1.268494 0.258794 -2.043652 0
M  V30 20 C -2.449566 -0.069894 -2.696761 0
M  V30 21 C -3.627633 -0.280000 -1.971708 0
M  V30 22 C -3.599174 -0.154695 -0.584759 0
M  V30 23 C -2.402862 0.175328 0.044626 0
M  V30 24 C 1.439042 -3.716332 -0.186233 0
M  V30 25 C 2.144139 -3.199999 -1.397379 0
M  V30 26 C 0.165117 -4.366940 -0.711569 0
M  V30 27 H 1.304163 -3.566217 3.808366 0
M  V30 28 H 1.192139 -1.823508 3.272248 0
M  V30 29 H -0.243303 -2.702144 3.847317 0
M  V30 30 H 0.531120 -4.382362 1.851493 0
M  V30 31 H -1.448963 -2.554615 0.761521 0
M  V30 32 H -1.592935 -2.576010 2.514611 0
M  V30 33 H -1.695566 -4.085926 1.626929 0
M  V30 34 H 2.606027 -1.446286 1.831750 0
M  V30 35 H 3.331318 -2.651838 0.778380 0
M  V30 36 H 2.629663 -3.229197 2.295187 0
M  V30 37 H -0.046090 -1.728435 -0.556724 0
M  V30 38 H 1.625566 -1.177414 -0.409251 0
M  V30 39 H 1.189437 0.010584 1.656941 0
M  V30 40 H -0.477207 -0.570304 1.754428 0
M  V30 41 H 2.616865 2.197261 0.703304 0
M  V30 42 H 3.198620 1.088025 0.505058 0
M  V30 43 H -0.497082 3.163070 -1.006149 0
M  V30 44 H -0.986025 5.253204 0.233973 0
M  V30 45 H -1.128436 5.308422 2.641370 0
M  V30 46 H -0.786860 3.257688 3.976007 0
M  V30 47 H -0.302055 1.170099 2.806739 0
M  V30 48 H -0.338623 0.428247 -2.567563 0
M  V30 49 H -2.407359 -0.152670 -3.774423 0
M  V30 50 H -4.515943 -0.533545 -2.543333 0
M  V30 51 H -4.536699 -0.327867 -0.086000 0
M  V30 52 H -2.442682 0.258295 1.115278 0
M  V30 53 H 2.011661 -4.524848 0.301581 0
M  V30 54 H 3.021204 -2.581091 -1.235669 0
M  V30 55 H 1.457492 -2.677855 -2.093281 0
M  V30 56 H 2.500244 -4.102114 -1.956466 0
M  V30 57 H -0.529001 -3.640182 -1.168481 0
M  V30 58 H 0.522338 -4.983631 -1.586690 0
M  V30 59 H -0.281041 -5.091387 -0.028291 0
M  V30 END ATOM
M  V30 BEGIN BOND
M  V30 1 1 1 2
M  V30 2 1 2 3
M  V30 3 1 2 4
M  V30 4 1 4 5
M  V30 5 1 4 6
M  V30 6 1 6 7
M  V30 7 1 7 8
M  V30 8 1 8 9
M  V30 9 1 9 10
M  V30 10 2 9 11
M  V30 11 1 8 12
M  V30 12 2 12 13
M  V30 13 1 13 14
M  V30 14 2 14 15
M  V30 15 1 15 16
M  V30 16 2 16 17
M  V30 17 1 8 18
M  V30 18 2 18 19
M  V30 19 1 19 20
M  V30 20 2 20 21
M  V30 21 1 21 22
M  V30 22 2 22 23
M  V30 23 1 4 24
M  V30 24 1 24 25
M  V30 25 1 24 26
M  V30 26 1 17 12
M  V30 27 1 23 18
M  V30 28 1 1 27
M  V30 29 1 1 28
M  V30 30 1 1 29
M  V30 31 1 2 30
M  V30 32 1 3 31
M  V30 33 1 3 32
M  V30 34 1 3 33
M  V30 35 1 5 34
M  V30 36 1 5 35
M  V30 37 1 5 36
M  V30 38 1 6 37
M  V30 39 1 6 38
M  V30 40 1 7 39
M  V30 41 1 7 40
M  V30 42 1 10 41
M  V30 43 1 10 42
M  V30 44 1 13 43
M  V30 45 1 14 44
M  V30 46 1 15 45
M  V30 47 1 16 46
M  V30 48 1 17 47
M  V30 49 1 19 48
M  V30 50 1 20 49
M  V30 51 1 21 50
M  V30 52 1 22 51
M  V30 53 1 23 52
M  V30 54 1 24 53
M  V30 55 1 25 54
M  V30 56 1 25 55
M  V30 57 1 25 56
M  V30 58 1 26 57
M  V30 59 1 26 58
M  V30 60 1 26 59
M  V30 END BOND
M  V30 END CTAB
M  END
>  <Dataset>  (477) 
OralDrugs

>  <Ligand_Instance>  (477) 
nan

>  <PDB_ID>  (477) 
nan

>  <Standardized_SMILES>  (477) 
CC(C)[N+](C)(CCC(C(N)=O)(c1ccccc1)c1ccccc1)C(C)C

>  <Name>  (477) 
Isopropamide

>  <Pocket>  (477) 
nan

>  <ATP_Site>  (477) 
nan

>  <Peripheral>  (477) 
nan

>  <Num_H_Atoms_ProtBoundConf>  (477) 
nan

>  <Num_Resolved_Atoms>  (477) 
nan

>  <Num_Not_Resolved_Atoms>  (477) 
nan

$$$$
CHEMBL1200660
     RDKit          3D

  0  0  0  0  0  0  0  0  0  0999 V3000
M  V30 BEGIN CTAB
M  V30 COUNTS 20 21 0 0 0
M  V30 BEGIN ATOM
M  V30 1 O 0.615250 -1.474309 2.295756 0
M  V30 2 C 1.278455 -0.255619 2.128924 0 CFG=2
M  V30 3 C 0.342318 0.877577 2.469811 0
M  V30 4 O -0.419567 0.982808 1.321119 0
M  V30 5 C 0.460686 0.886804 0.251114 0 CFG=1
M  V30 6 C 1.603223 0.015865 0.671827 0 CFG=2
M  V30 7 O 1.524393 -1.180651 -0.000200 0
M  V30 8 C 0.246129 -1.322936 -0.495391 0
M  V30 9 C -0.223199 0.085293 -0.820709 0 CFG=2
M  V30 10 O 0.215189 0.372861 -2.100993 0
M  V30 11 H 1.216791 -2.170220 1.942093 0
M  V30 12 H 2.182570 -0.281833 2.756932 0
M  V30 13 H 0.952763 1.766227 2.687289 0
M  V30 14 H -0.244764 0.563885 3.341301 0
M  V30 15 H 0.766950 1.899535 -0.085259 0
M  V30 16 H 2.588057 0.521727 0.553564 0
M  V30 17 H 0.181055 -1.948165 -1.393155 0
M  V30 18 H -0.478011 -1.719749 0.241040 0
M  V30 19 H -1.320119 0.170243 -0.737361 0
M  V30 20 H 0.071926 -0.460462 -2.634268 0
M  V30 END ATOM
M  V30 BEGIN BOND
M  V30 1 1 1 2
M  V30 2 1 2 3
M  V30 3 1 3 4
M  V30 4 1 4 5
M  V30 5 1 5 6
M  V30 6 1 6 7
M  V30 7 1 7 8
M  V30 8 1 8 9
M  V30 9 1 9 10
M  V30 10 1 6 2
M  V30 11 1 9 5
M  V30 12 1 1 11
M  V30 13 1 2 12 CFG=1
M  V30 14 1 3 13
M  V30 15 1 3 14
M  V30 16 1 5 15 CFG=3
M  V30 17 1 6 16 CFG=1
M  V30 18 1 8 17
M  V30 19 1 8 18
M  V30 20 1 9 19 CFG=3
M  V30 21 1 10 20
M  V30 END BOND
M  V30 END CTAB
M  END
>  <Dataset>  (478) 
OralDrugs

>  <Ligand_Instance>  (478) 
nan

>  <PDB_ID>  (478) 
nan

>  <Standardized_SMILES>  (478) 
O[C@@H]1CO[C@H]2[C@@H]1OC[C@@H]2O

>  <Name>  (478) 
Isosorbide

>  <Pocket>  (478) 
nan

>  <ATP_Site>  (478) 
nan

>  <Peripheral>  (478) 
nan

>  <Num_H_Atoms_ProtBoundConf>  (478) 
nan

>  <Num_Resolved_Atoms>  (478) 
nan

>  <Num_Not_Resolved_Atoms>  (478) 
nan

$$$$
CHEMBL6622
     RDKit          3D

  0  0  0  0  0  0  0  0  0  0999 V3000
M  V30 BEGIN CTAB
M  V30 COUNTS 24 25 0 0 0
M  V30 BEGIN ATOM
M  V30 1 O -1.663747 -2.884030 4.284519 0
M  V30 2 N -0.865589 -2.992424 3.319593 0 CHG=1 VAL=4
M  V30 3 O -0.598030 -4.032296 2.464994 0 CHG=-1 VAL=1
M  V30 4 O 0.092135 -2.513605 2.484033 0
M  V30 5 C 0.155264 -1.149564 2.190934 0 CFG=1
M  V30 6 C 1.543195 -0.587308 2.502931 0
M  V30 7 O 1.544035 0.513447 1.640108 0
M  V30 8 C 1.326559 -0.104608 0.431838 0 CFG=1
M  V30 9 C 0.087247 -0.930573 0.704375 0 CFG=2
M  V30 10 O -0.935238 -0.091691 0.328996 0
M  V30 11 C -0.519415 0.352187 -0.937490 0
M  V30 12 C 0.884828 0.809342 -0.664271 0 CFG=1
M  V30 13 O 0.945546 2.167423 -0.339216 0
M  V30 14 N 1.631171 3.142161 -0.977058 0 CHG=1 VAL=4
M  V30 15 O 1.032236 4.220958 -0.741680 0
M  V30 16 O 2.759385 3.256670 -1.778373 0 CHG=-1 VAL=1
M  V30 17 H -0.626218 -0.548037 2.695445 0
M  V30 18 H 2.275122 -1.353608 2.171185 0
M  V30 19 H 1.664768 -0.325381 3.565148 0
M  V30 20 H 2.193129 -0.735203 0.148243 0
M  V30 21 H 0.114215 -1.879017 0.132747 0
M  V30 22 H -1.158590 1.166252 -1.317130 0
M  V30 23 H -0.535819 -0.536226 -1.594036 0
M  V30 24 H 1.505950 0.626876 -1.561826 0
M  V30 END ATOM
M  V30 BEGIN BOND
M  V30 1 2 1 2
M  V30 2 1 2 3
M  V30 3 1 2 4
M  V30 4 1 4 5
M  V30 5 1 5 6
M  V30 6 1 6 7
M  V30 7 1 7 8
M  V30 8 1 8 9
M  V30 9 1 9 10
M  V30 10 1 10 11
M  V30 11 1 11 12
M  V30 12 1 12 13
M  V30 13 1 13 14
M  V30 14 2 14 15
M  V30 15 1 14 16
M  V30 16 1 9 5
M  V30 17 1 12 8
M  V30 18 1 5 17 CFG=1
M  V30 19 1 6 18
M  V30 20 1 6 19
M  V30 21 1 8 20 CFG=3
M  V30 22 1 9 21 CFG=3
M  V30 23 1 11 22
M  V30 24 1 11 23
M  V30 25 1 12 24 CFG=3
M  V30 END BOND
M  V30 END CTAB
M  END
>  <Dataset>  (479) 
OralDrugs

>  <Ligand_Instance>  (479) 
nan

>  <PDB_ID>  (479) 
nan

>  <Standardized_SMILES>  (479) 
O=[N+]([O-])O[C@H]1CO[C@H]2[C@@H]1OC[C@H]2O[N+](=O)[O-]

>  <Name>  (479) 
Isosorbide Dinitrate

>  <Pocket>  (479) 
nan

>  <ATP_Site>  (479) 
nan

>  <Peripheral>  (479) 
nan

>  <Num_H_Atoms_ProtBoundConf>  (479) 
nan

>  <Num_Resolved_Atoms>  (479) 
nan

>  <Num_Not_Resolved_Atoms>  (479) 
nan

$$$$
CHEMBL547
     RDKit          3D

  0  0  0  0  0  0  0  0  0  0999 V3000
M  V30 BEGIN CTAB
M  V30 COUNTS 50 50 0 0 0
M  V30 BEGIN ATOM
M  V30 1 C 1.182479 -4.353349 -1.356876 0
M  V30 2 C -0.160638 -4.180870 -2.027586 0
M  V30 3 C -0.767140 -2.977330 -1.958286 0
M  V30 4 C -0.014642 -1.970120 -1.217772 0
M  V30 5 C -0.322075 -0.716932 -0.972197 0
M  V30 6 C 0.492749 0.252976 -0.209289 0
M  V30 7 C 1.787295 -0.091886 0.388132 0
M  V30 8 C 0.011561 1.476707 -0.070351 0
M  V30 9 C 0.696976 2.538069 0.651355 0
M  V30 10 C 0.160400 3.753491 0.758198 0
M  V30 11 C 0.788642 4.850472 1.460469 0
M  V30 12 C 2.108200 4.654067 2.114797 0
M  V30 13 C 0.221333 6.042277 1.542657 0
M  V30 14 C -1.054867 6.316799 0.937546 0
M  V30 15 O -1.676682 7.427954 0.964068 0
M  V30 16 O -2.243699 6.236350 0.263330 0
M  V30 17 C -2.045003 -3.025599 -2.667918 0
M  V30 18 C -1.749203 -3.122112 -4.149367 0
M  V30 19 C -2.987268 -1.887637 -2.451402 0
M  V30 20 C -2.812942 -4.263500 -2.164249 0
M  V30 21 C -2.186509 -5.516683 -2.665359 0
M  V30 22 C -0.692514 -5.378649 -2.717406 0
M  V30 23 H 1.926439 -3.653091 -1.770585 0
M  V30 24 H 1.022099 -4.148601 -0.262951 0
M  V30 25 H 1.560786 -5.378970 -1.465480 0
M  V30 26 H 0.944170 -2.174749 -0.766589 0
M  V30 27 H -1.268775 -0.404767 -1.388140 0
M  V30 28 H 2.662974 0.057529 -0.267756 0
M  V30 29 H 1.785549 -1.160872 0.753657 0
M  V30 30 H 1.971153 0.505521 1.328001 0
M  V30 31 H -0.944307 1.716254 -0.512927 0
M  V30 32 H 1.651669 2.484697 1.151998 0
M  V30 33 H -0.815829 3.912200 0.278951 0
M  V30 34 H 2.045783 3.931244 2.961257 0
M  V30 35 H 2.492310 5.600235 2.539736 0
M  V30 36 H 2.883821 4.332166 1.375088 0
M  V30 37 H 0.644187 6.894616 2.052815 0
M  V30 38 H -2.335213 5.581867 -0.519473 0
M  V30 39 H -2.146935 -2.206317 -4.679761 0
M  V30 40 H -2.142689 -4.043383 -4.605093 0
M  V30 41 H -0.655389 -3.084258 -4.358282 0
M  V30 42 H -3.216050 -1.713724 -1.387082 0
M  V30 43 H -3.984767 -2.270633 -2.858366 0
M  V30 44 H -2.802291 -0.989530 -3.058955 0
M  V30 45 H -3.898074 -4.183950 -2.414018 0
M  V30 46 H -2.735384 -4.225795 -1.056013 0
M  V30 47 H -2.506928 -6.350750 -1.985359 0
M  V30 48 H -2.622272 -5.774551 -3.650949 0
M  V30 49 H -0.228168 -6.283580 -2.259429 0
M  V30 50 H -0.339633 -5.379561 -3.775303 0
M  V30 END ATOM
M  V30 BEGIN BOND
M  V30 1 1 1 2
M  V30 2 2 2 3
M  V30 3 1 3 4
M  V30 4 2 4 5
M  V30 5 1 5 6
M  V30 6 1 6 7
M  V30 7 2 6 8
M  V30 8 1 8 9
M  V30 9 2 9 10
M  V30 10 1 10 11
M  V30 11 1 11 12
M  V30 12 2 11 13
M  V30 13 1 13 14
M  V30 14 2 14 15
M  V30 15 1 14 16
M  V30 16 1 3 17
M  V30 17 1 17 18
M  V30 18 1 17 19
M  V30 19 1 17 20
M  V30 20 1 20 21
M  V30 21 1 21 22
M  V30 22 1 22 2
M  V30 23 1 1 23
M  V30 24 1 1 24
M  V30 25 1 1 25
M  V30 26 1 4 26
M  V30 27 1 5 27
M  V30 28 1 7 28
M  V30 29 1 7 29
M  V30 30 1 7 30
M  V30 31 1 8 31
M  V30 32 1 9 32
M  V30 33 1 10 33
M  V30 34 1 12 34
M  V30 35 1 12 35
M  V30 36 1 12 36
M  V30 37 1 13 37
M  V30 38 1 16 38
M  V30 39 1 18 39
M  V30 40 1 18 40
M  V30 41 1 18 41
M  V30 42 1 19 42
M  V30 43 1 19 43
M  V30 44 1 19 44
M  V30 45 1 20 45
M  V30 46 1 20 46
M  V30 47 1 21 47
M  V30 48 1 21 48
M  V30 49 1 22 49
M  V30 50 1 22 50
M  V30 END BOND
M  V30 END CTAB
M  END
>  <Dataset>  (480) 
OralDrugs

>  <Ligand_Instance>  (480) 
nan

>  <PDB_ID>  (480) 
nan

>  <Standardized_SMILES>  (480) 
CC1=C(/C=C/C(C)=C/C=C/C(C)=C\C(=O)O)C(C)(C)CCC1

>  <Name>  (480) 
Isotretinoin

>  <Pocket>  (480) 
nan

>  <ATP_Site>  (480) 
nan

>  <Peripheral>  (480) 
nan

>  <Num_H_Atoms_ProtBoundConf>  (480) 
nan

>  <Num_Resolved_Atoms>  (480) 
nan

>  <Num_Not_Resolved_Atoms>  (480) 
nan

$$$$
CHEMBL1648
     RDKit          3D

  0  0  0  0  0  0  0  0  0  0999 V3000
M  V30 BEGIN CTAB
M  V30 COUNTS 48 50 0 0 0
M  V30 BEGIN ATOM
M  V30 1 C 0.365901 -4.535146 2.918343 0
M  V30 2 O 0.430081 -3.340004 2.129185 0
M  V30 3 C 0.786340 -3.366730 0.792936 0
M  V30 4 O 0.995912 -4.579954 0.554180 0
M  V30 5 C 0.862859 -2.175458 -0.041115 0
M  V30 6 C 1.190938 -2.207464 -1.309826 0
M  V30 7 C 1.495509 -3.466236 -2.027712 0
M  V30 8 N 1.482055 -0.989994 -2.028847 0
M  V30 9 C 1.390973 0.194385 -1.259479 0
M  V30 10 C 1.703055 1.515983 -1.920664 0
M  V30 11 C 1.059688 0.316274 0.007766 0
M  V30 12 C 0.977929 1.496501 0.858585 0
M  V30 13 O 1.198323 2.649736 0.406910 0
M  V30 14 O 0.670164 1.466745 2.201878 0
M  V30 15 C 0.630960 2.673460 2.918655 0
M  V30 16 C 1.678777 2.556114 4.022238 0
M  V30 17 C -0.737933 2.770487 3.592114 0
M  V30 18 C 0.434951 -0.911736 0.576057 0
M  V30 19 C -1.071193 -0.820679 0.349204 0
M  V30 20 C -1.846249 0.293785 0.571105 0
M  V30 21 C -3.185884 0.399817 0.369091 0
M  V30 22 C -3.890296 -0.683943 -0.104691 0
M  V30 23 C -3.182452 -1.834848 -0.351556 0
M  V30 24 N -3.624792 -3.020189 -0.823624 0
M  V30 25 O -2.563077 -3.782476 -0.889558 0
M  V30 26 N -1.522343 -3.136935 -0.490966 0
M  V30 27 C -1.825881 -1.905056 -0.134602 0
M  V30 28 H 1.223257 -5.198921 2.730319 0
M  V30 29 H -0.608187 -5.034693 2.812990 0
M  V30 30 H 0.436453 -4.193230 3.975849 0
M  V30 31 H 0.794393 -4.276175 -1.745285 0
M  V30 32 H 2.568335 -3.753121 -1.944412 0
M  V30 33 H 1.304440 -3.291681 -3.106946 0
M  V30 34 H 1.743995 -0.915843 -3.030610 0
M  V30 35 H 0.843118 2.181484 -1.853983 0
M  V30 36 H 2.068860 1.339187 -2.941184 0
M  V30 37 H 2.552769 2.022905 -1.389862 0
M  V30 38 H 0.859448 3.571620 2.316329 0
M  V30 39 H 1.435856 3.240859 4.863279 0
M  V30 40 H 1.683608 1.500619 4.354456 0
M  V30 41 H 2.653608 2.790332 3.556459 0
M  V30 42 H -1.146305 1.750838 3.721098 0
M  V30 43 H -1.400177 3.342381 2.909816 0
M  V30 44 H -0.584155 3.284813 4.551418 0
M  V30 45 H 0.591772 -0.928935 1.648384 0
M  V30 46 H -1.453885 1.208825 0.917301 0
M  V30 47 H -3.778521 1.278595 0.548116 0
M  V30 48 H -4.948971 -0.663511 -0.284414 0
M  V30 END ATOM
M  V30 BEGIN BOND
M  V30 1 1 1 2
M  V30 2 1 2 3
M  V30 3 2 3 4
M  V30 4 1 3 5
M  V30 5 2 5 6
M  V30 6 1 6 7
M  V30 7 1 6 8
M  V30 8 1 8 9
M  V30 9 1 9 10
M  V30 10 2 9 11
M  V30 11 1 11 12
M  V30 12 2 12 13
M  V30 13 1 12 14
M  V30 14 1 14 15
M  V30 15 1 15 16
M  V30 16 1 15 17
M  V30 17 1 11 18
M  V30 18 1 18 19
M  V30 19 2 19 20
M  V30 20 1 20 21
M  V30 21 2 21 22
M  V30 22 1 22 23
M  V30 23 2 23 24
M  V30 24 1 24 25
M  V30 25 1 25 26
M  V30 26 2 26 27
M  V30 27 1 18 5
M  V30 28 1 27 19
M  V30 29 1 27 23
M  V30 30 1 1 28
M  V30 31 1 1 29
M  V30 32 1 1 30
M  V30 33 1 7 31
M  V30 34 1 7 32
M  V30 35 1 7 33
M  V30 36 1 8 34
M  V30 37 1 10 35
M  V30 38 1 10 36
M  V30 39 1 10 37
M  V30 40 1 15 38
M  V30 41 1 16 39
M  V30 42 1 16 40
M  V30 43 1 16 41
M  V30 44 1 17 42
M  V30 45 1 17 43
M  V30 46 1 17 44
M  V30 47 1 18 45
M  V30 48 1 20 46
M  V30 49 1 21 47
M  V30 50 1 22 48
M  V30 END BOND
M  V30 END CTAB
M  END
>  <Dataset>  (481) 
OralDrugs

>  <Ligand_Instance>  (481) 
nan

>  <PDB_ID>  (481) 
nan

>  <Standardized_SMILES>  (481) 
COC(=O)C1=C(C)NC(C)=C(C(=O)OC(C)C)C1c1cccc2nonc12

>  <Name>  (481) 
Isradipine

>  <Pocket>  (481) 
nan

>  <ATP_Site>  (481) 
nan

>  <Peripheral>  (481) 
nan

>  <Num_H_Atoms_ProtBoundConf>  (481) 
nan

>  <Num_Resolved_Atoms>  (481) 
nan

>  <Num_Not_Resolved_Atoms>  (481) 
nan

$$$$
CHEMBL431770
     RDKit          3D

  0  0  0  0  0  0  0  0  0  0999 V3000
M  V30 BEGIN CTAB
M  V30 COUNTS 52 54 0 0 0
M  V30 BEGIN ATOM
M  V30 1 C -2.899857 -6.973490 -0.898321 0
M  V30 2 C -2.043156 -6.804148 0.347864 0
M  V30 3 N -1.288546 -5.568117 0.284496 0
M  V30 4 C -1.770584 -4.393063 0.770335 0
M  V30 5 O -2.906259 -4.435778 1.277752 0
M  V30 6 C -1.060309 -3.211290 0.714835 0
M  V30 7 C 0.198952 -3.242486 0.134395 0
M  V30 8 N 0.625123 -1.958289 0.231557 0
M  V30 9 C -0.321344 -1.214848 0.831128 0
M  V30 10 C -0.203855 0.212814 1.101527 0
M  V30 11 C 0.878609 0.888831 0.761341 0
M  V30 12 C 1.123796 2.313850 0.972865 0
M  V30 13 C 2.305392 2.906428 0.569218 0
M  V30 14 C 2.519122 4.253548 0.777637 0
M  V30 15 C 1.584974 5.065545 1.387395 0
M  V30 16 O 1.819986 6.421243 1.588071 0
M  V30 17 C 2.999116 7.042652 1.192010 0
M  V30 18 C 0.396795 4.496784 1.799436 0
M  V30 19 O -0.546792 5.309331 2.413579 0
M  V30 20 C -1.755375 4.696541 2.824870 0
M  V30 21 C 0.200779 3.140519 1.580877 0
M  V30 22 N -1.379336 -1.986820 1.137791 0
M  V30 23 C -2.575595 -1.494193 1.794310 0
M  V30 24 N 0.681082 -4.419573 -0.351955 0
M  V30 25 C 1.993850 -4.394360 -0.943776 0
M  V30 26 C 1.827819 -4.095279 -2.415790 0
M  V30 27 C -0.049732 -5.538904 -0.272935 0
M  V30 28 O 0.482489 -6.581989 -0.751728 0
M  V30 29 H -3.224372 -5.981940 -1.255851 0
M  V30 30 H -2.355709 -7.527213 -1.706821 0
M  V30 31 H -3.788649 -7.581488 -0.648371 0
M  V30 32 H -1.422758 -7.693215 0.553413 0
M  V30 33 H -2.748652 -6.697386 1.212182 0
M  V30 34 H -0.989777 0.774118 1.587225 0
M  V30 35 H 1.650522 0.309226 0.277884 0
M  V30 36 H 3.081313 2.311584 0.080800 0
M  V30 37 H 3.472111 4.670547 0.438281 0
M  V30 38 H 3.401365 6.702564 0.218473 0
M  V30 39 H 3.792637 6.827159 1.936950 0
M  V30 40 H 2.827468 8.135631 1.227347 0
M  V30 41 H -2.319559 5.414921 3.485264 0
M  V30 42 H -1.550874 3.826042 3.470624 0
M  V30 43 H -2.414789 4.506909 1.975839 0
M  V30 44 H -0.745630 2.761200 1.925779 0
M  V30 45 H -3.233156 -2.291574 2.148677 0
M  V30 46 H -3.068538 -0.730671 1.166696 0
M  V30 47 H -2.238571 -0.935218 2.709121 0
M  V30 48 H 2.648641 -3.619544 -0.518519 0
M  V30 49 H 2.496563 -5.385025 -0.797637 0
M  V30 50 H 1.775472 -3.005094 -2.587022 0
M  V30 51 H 0.863262 -4.554193 -2.736412 0
M  V30 52 H 2.618880 -4.569343 -3.039017 0
M  V30 END ATOM
M  V30 BEGIN BOND
M  V30 1 1 1 2
M  V30 2 1 2 3
M  V30 3 1 3 4
M  V30 4 2 4 5
M  V30 5 1 4 6
M  V30 6 2 6 7
M  V30 7 1 7 8
M  V30 8 2 8 9
M  V30 9 1 9 10
M  V30 10 2 10 11
M  V30 11 1 11 12
M  V30 12 2 12 13
M  V30 13 1 13 14
M  V30 14 2 14 15
M  V30 15 1 15 16
M  V30 16 1 16 17
M  V30 17 1 15 18
M  V30 18 1 18 19
M  V30 19 1 19 20
M  V30 20 2 18 21
M  V30 21 1 9 22
M  V30 22 1 22 23
M  V30 23 1 7 24
M  V30 24 1 24 25
M  V30 25 1 25 26
M  V30 26 1 24 27
M  V30 27 2 27 28
M  V30 28 1 27 3
M  V30 29 1 22 6
M  V30 30 1 21 12
M  V30 31 1 1 29
M  V30 32 1 1 30
M  V30 33 1 1 31
M  V30 34 1 2 32
M  V30 35 1 2 33
M  V30 36 1 10 34
M  V30 37 1 11 35
M  V30 38 1 13 36
M  V30 39 1 14 37
M  V30 40 1 17 38
M  V30 41 1 17 39
M  V30 42 1 17 40
M  V30 43 1 20 41
M  V30 44 1 20 42
M  V30 45 1 20 43
M  V30 46 1 21 44
M  V30 47 1 23 45
M  V30 48 1 23 46
M  V30 49 1 23 47
M  V30 50 1 25 48
M  V30 51 1 25 49
M  V30 52 1 26 50
M  V30 53 1 26 51
M  V30 54 1 26 52
M  V30 END BOND
M  V30 END CTAB
M  END
>  <Dataset>  (482) 
OralDrugs

>  <Ligand_Instance>  (482) 
nan

>  <PDB_ID>  (482) 
nan

>  <Standardized_SMILES>  (482) 
CCn1c(=O)c2c(nc(/C=C/c3ccc(OC)c(OC)c3)n2C)n(CC)c1=O

>  <Name>  (482) 
Istradefylline

>  <Pocket>  (482) 
nan

>  <ATP_Site>  (482) 
nan

>  <Peripheral>  (482) 
nan

>  <Num_H_Atoms_ProtBoundConf>  (482) 
nan

>  <Num_Resolved_Atoms>  (482) 
nan

>  <Num_Not_Resolved_Atoms>  (482) 
nan

$$$$
CHEMBL64391
     RDKit          3D

  0  0  0  0  0  0  0  0  0  0999 V3000
M  V30 BEGIN CTAB
M  V30 COUNTS 87 93 0 0 0
M  V30 BEGIN ATOM
M  V30 1 C -0.717748 -6.756164 -2.070563 0
M  V30 2 C -0.672677 -5.340265 -2.579955 0
M  V30 3 C 0.388969 -5.160237 -3.649850 0
M  V30 4 C 0.067113 -6.076039 -4.788634 0
M  V30 5 N 0.456661 -3.760551 -4.025399 0
M  V30 6 N 1.204006 -3.572742 -5.122548 0
M  V30 7 C 1.225993 -2.246867 -5.413850 0
M  V30 8 N 0.488346 -1.612122 -4.491240 0
M  V30 9 C 0.059028 -0.292284 -4.135479 0
M  V30 10 C 0.935349 0.725105 -3.803461 0
M  V30 11 C 0.470870 1.979097 -3.455827 0
M  V30 12 C -0.876990 2.240602 -3.432637 0
M  V30 13 N -1.429776 3.495043 -3.070091 0
M  V30 14 C -0.649792 4.656782 -2.590825 0
M  V30 15 C -1.336883 5.196693 -1.332708 0
M  V30 16 N -2.201468 4.120954 -0.797131 0
M  V30 17 C -1.895743 3.505409 0.438232 0
M  V30 18 C -2.348423 2.216754 0.630959 0
M  V30 19 C -2.096866 1.554196 1.808978 0
M  V30 20 C -1.394875 2.103526 2.858087 0
M  V30 21 O -0.996806 1.706301 4.099963 0
M  V30 22 C -1.182617 0.482107 4.733494 0
M  V30 23 C -0.449287 -0.588758 3.979428 0
M  V30 24 C -0.499746 -1.925367 4.682485 0
M  V30 25 O 0.601575 -2.562155 4.119025 0
M  V30 26 C 1.481034 -1.548095 3.732713 0
M  V30 27 C 2.738922 -1.640818 4.622346 0
M  V30 28 N 2.347283 -1.477990 6.026803 0
M  V30 29 C 2.248181 -0.352834 6.766055 0
M  V30 30 N 1.859728 -0.722808 7.996481 0
M  V30 31 C 1.729004 -2.053611 7.991800 0
M  V30 32 N 2.028615 -2.543243 6.771624 0
M  V30 33 C 1.915846 -1.728988 2.319092 0
M  V30 34 C 1.442861 -2.867837 1.650033 0
M  V30 35 C 1.752484 -3.213755 0.370069 0
M  V30 36 C 2.589221 -2.411464 -0.356085 0
M  V30 37 Cl 3.109136 -2.677010 -2.007553 0
M  V30 38 C 3.083048 -1.283186 0.243805 0
M  V30 39 C 2.750051 -0.963153 1.538211 0
M  V30 40 Cl 3.359513 0.492949 2.281524 0
M  V30 41 O 0.920539 -0.332933 3.934390 0
M  V30 42 C -0.932199 3.419107 2.664088 0
M  V30 43 C -1.190830 4.093972 1.460123 0
M  V30 44 C -3.322649 3.831470 -1.665295 0
M  V30 45 C -2.819726 3.829195 -3.097316 0
M  V30 46 C -1.766394 1.242521 -3.759749 0
M  V30 47 C -1.312725 -0.012413 -4.108486 0
M  V30 48 C 0.017232 -2.549348 -3.639465 0
M  V30 49 O -0.707073 -2.569525 -2.608274 0
M  V30 50 H 0.267704 -7.241258 -2.246393 0
M  V30 51 H -1.508440 -7.312856 -2.595011 0
M  V30 52 H -0.921279 -6.801232 -0.964832 0
M  V30 53 H -1.650363 -4.976492 -2.938449 0
M  V30 54 H -0.387824 -4.699802 -1.720228 0
M  V30 55 H 1.376272 -5.473865 -3.225248 0
M  V30 56 H -0.079846 -7.092519 -4.339043 0
M  V30 57 H 0.932577 -6.125143 -5.474200 0
M  V30 58 H -0.893901 -5.832769 -5.276726 0
M  V30 59 H 1.665067 -1.611088 -6.161798 0
M  V30 60 H 2.007156 0.506673 -3.824504 0
M  V30 61 H 1.182746 2.737327 -3.204783 0
M  V30 62 H -0.742119 5.433037 -3.365250 0
M  V30 63 H 0.398146 4.426835 -2.424753 0
M  V30 64 H -2.022510 5.994420 -1.658821 0
M  V30 65 H -0.539197 5.479899 -0.658076 0
M  V30 66 H -2.901812 1.601741 -0.038907 0
M  V30 67 H -2.426040 0.564438 2.045655 0
M  V30 68 H -0.748337 0.525737 5.752490 0
M  V30 69 H -2.277257 0.216068 4.797470 0
M  V30 70 H -0.797488 -0.766802 2.956605 0
M  V30 71 H -0.478382 -1.881757 5.769549 0
M  V30 72 H -1.393515 -2.503283 4.302277 0
M  V30 73 H 3.381268 -0.792708 4.374852 0
M  V30 74 H 3.192411 -2.613513 4.442918 0
M  V30 75 H 2.470893 0.621675 6.327617 0
M  V30 76 H 1.438043 -2.753908 8.768557 0
M  V30 77 H 0.769332 -3.564184 2.147850 0
M  V30 78 H 1.383096 -4.086826 -0.125601 0
M  V30 79 H 3.754758 -0.590972 -0.262631 0
M  V30 80 H -0.355754 4.052018 3.359554 0
M  V30 81 H -0.844845 5.116855 1.287116 0
M  V30 82 H -3.658271 2.800623 -1.441315 0
M  V30 83 H -4.150438 4.563772 -1.530898 0
M  V30 84 H -2.927922 4.885517 -3.464763 0
M  V30 85 H -3.448663 3.187165 -3.750276 0
M  V30 86 H -2.845265 1.289338 -3.786355 0
M  V30 87 H -1.968126 -0.844070 -4.376993 0
M  V30 END ATOM
M  V30 BEGIN BOND
M  V30 1 1 1 2
M  V30 2 1 2 3
M  V30 3 1 3 4
M  V30 4 1 3 5
M  V30 5 1 5 6
M  V30 6 2 6 7
M  V30 7 1 7 8
M  V30 8 1 8 9
M  V30 9 2 9 10
M  V30 10 1 10 11
M  V30 11 2 11 12
M  V30 12 1 12 13
M  V30 13 1 13 14
M  V30 14 1 14 15
M  V30 15 1 15 16
M  V30 16 1 16 17
M  V30 17 2 17 18
M  V30 18 1 18 19
M  V30 19 2 19 20
M  V30 20 1 20 21
M  V30 21 1 21 22
M  V30 22 1 22 23
M  V30 23 1 23 24
M  V30 24 1 24 25
M  V30 25 1 25 26
M  V30 26 1 26 27
M  V30 27 1 27 28
M  V30 28 1 28 29
M  V30 29 2 29 30
M  V30 30 1 30 31
M  V30 31 2 31 32
M  V30 32 1 26 33
M  V30 33 2 33 34
M  V30 34 1 34 35
M  V30 35 2 35 36
M  V30 36 1 36 37
M  V30 37 1 36 38
M  V30 38 2 38 39
M  V30 39 1 39 40
M  V30 40 1 26 41
M  V30 41 1 20 42
M  V30 42 2 42 43
M  V30 43 1 16 44
M  V30 44 1 44 45
M  V30 45 1 12 46
M  V30 46 2 46 47
M  V30 47 1 8 48
M  V30 48 2 48 49
M  V30 49 1 48 5
M  V30 50 1 47 9
M  V30 51 1 45 13
M  V30 52 1 43 17
M  V30 53 1 41 23
M  V30 54 1 32 28
M  V30 55 1 39 33
M  V30 56 1 1 50
M  V30 57 1 1 51
M  V30 58 1 1 52
M  V30 59 1 2 53
M  V30 60 1 2 54
M  V30 61 1 3 55
M  V30 62 1 4 56
M  V30 63 1 4 57
M  V30 64 1 4 58
M  V30 65 1 7 59
M  V30 66 1 10 60
M  V30 67 1 11 61
M  V30 68 1 14 62
M  V30 69 1 14 63
M  V30 70 1 15 64
M  V30 71 1 15 65
M  V30 72 1 18 66
M  V30 73 1 19 67
M  V30 74 1 22 68
M  V30 75 1 22 69
M  V30 76 1 23 70
M  V30 77 1 24 71
M  V30 78 1 24 72
M  V30 79 1 27 73
M  V30 80 1 27 74
M  V30 81 1 29 75
M  V30 82 1 31 76
M  V30 83 1 34 77
M  V30 84 1 35 78
M  V30 85 1 38 79
M  V30 86 1 42 80
M  V30 87 1 43 81
M  V30 88 1 44 82
M  V30 89 1 44 83
M  V30 90 1 45 84
M  V30 91 1 45 85
M  V30 92 1 46 86
M  V30 93 1 47 87
M  V30 END BOND
M  V30 END CTAB
M  END
>  <Dataset>  (483) 
OralDrugs

>  <Ligand_Instance>  (483) 
nan

>  <PDB_ID>  (483) 
nan

>  <Standardized_SMILES>  (483) 
CCC(C)n1ncn(-c2ccc(N3CCN(c4ccc(OCC5COC(Cn6cncn6)(c6ccc(Cl)cc6Cl)O5)cc4)CC3)cc2)c1=O

>  <Name>  (483) 
Itraconazole

>  <Pocket>  (483) 
nan

>  <ATP_Site>  (483) 
nan

>  <Peripheral>  (483) 
nan

>  <Num_H_Atoms_ProtBoundConf>  (483) 
nan

>  <Num_Resolved_Atoms>  (483) 
nan

>  <Num_Not_Resolved_Atoms>  (483) 
nan

$$$$
CHEMBL471737
     RDKit          3D

  0  0  0  0  0  0  0  0  0  0999 V3000
M  V30 BEGIN CTAB
M  V30 COUNTS 70 73 0 0 0
M  V30 BEGIN ATOM
M  V30 1 C 4.805293 4.402849 2.258869 0
M  V30 2 O 4.535806 4.309721 0.914239 0
M  V30 3 C 3.462994 4.073644 0.157541 0
M  V30 4 C 2.142612 3.800590 0.491241 0
M  V30 5 C 1.117333 3.572560 -0.435188 0
M  V30 6 C 1.533202 3.643222 -1.758260 0
M  V30 7 C 2.814845 3.907407 -2.188093 0
M  V30 8 C 3.755594 4.117304 -1.205044 0
M  V30 9 O 5.039958 4.380283 -1.657008 0
M  V30 10 C 5.428037 4.442705 -3.006317 0
M  V30 11 C 0.517590 3.402440 -2.851743 0
M  V30 12 C -0.025604 1.996455 -2.691223 0
M  V30 13 O -0.061782 1.267744 -3.710235 0
M  V30 14 N -0.500247 1.456606 -1.434253 0
M  V30 15 C -0.555288 -0.002317 -1.530115 0
M  V30 16 C -1.863951 -0.521524 -2.051483 0
M  V30 17 C -1.868660 -2.021218 -2.156543 0
M  V30 18 N -1.645154 -2.712468 -0.908427 0
M  V30 19 C -2.791135 -2.540609 -0.066176 0
M  V30 20 C -1.348105 -4.073103 -1.140872 0
M  V30 21 C -1.025137 -4.964701 -0.007362 0 CFG=1
M  V30 22 C 0.131890 -4.611687 0.847748 0
M  V30 23 C -0.766293 -4.708064 1.981735 0
M  V30 24 C -0.767088 -4.580417 3.367276 0
M  V30 25 C -1.971059 -4.798746 4.010025 0
M  V30 26 O -2.090272 -4.699996 5.392562 0
M  V30 27 C -0.945190 -4.369450 6.166247 0
M  V30 28 C -3.072007 -5.123829 3.234940 0
M  V30 29 O -4.276870 -5.337594 3.933031 0
M  V30 30 C -5.441270 -5.673482 3.207114 0
M  V30 31 C -3.000842 -5.233344 1.869612 0
M  V30 32 C -1.823699 -5.024928 1.187547 0
M  V30 33 C -0.901140 2.081357 -0.188279 0
M  V30 34 C -0.164170 3.298951 0.200001 0
M  V30 35 H 5.215279 5.415607 2.528428 0
M  V30 36 H 5.547129 3.663189 2.633679 0
M  V30 37 H 3.871214 4.319950 2.845989 0
M  V30 38 H 1.967136 3.777994 1.555757 0
M  V30 39 H 2.923149 3.919248 -3.259819 0
M  V30 40 H 4.892799 3.768296 -3.673713 0
M  V30 41 H 6.527124 4.171399 -3.041850 0
M  V30 42 H 5.362276 5.480654 -3.419469 0
M  V30 43 H 0.927075 3.525179 -3.849405 0
M  V30 44 H -0.348098 4.070686 -2.682164 0
M  V30 45 H -0.379015 -0.372979 -0.491008 0
M  V30 46 H 0.329252 -0.325255 -2.097516 0
M  V30 47 H -2.133657 -0.049686 -3.031692 0
M  V30 48 H -2.664796 -0.198129 -1.370494 0
M  V30 49 H -2.870991 -2.401836 -2.516879 0
M  V30 50 H -1.171556 -2.383209 -2.956941 0
M  V30 51 H -2.542771 -2.572515 1.015989 0
M  V30 52 H -3.523842 -3.387707 -0.232367 0
M  V30 53 H -3.338264 -1.582372 -0.193219 0
M  V30 54 H -0.504727 -4.157891 -1.898832 0
M  V30 55 H -2.198155 -4.583065 -1.703834 0
M  V30 56 H -0.847256 -6.040698 -0.391729 0
M  V30 57 H 0.988343 -5.323708 0.820033 0
M  V30 58 H 0.539965 -3.601252 0.642089 0
M  V30 59 H 0.074565 -4.330504 3.971422 0
M  V30 60 H -0.644501 -3.305520 5.998925 0
M  V30 61 H -0.146427 -5.066388 5.852959 0
M  V30 62 H -1.149627 -4.474489 7.247785 0
M  V30 63 H -5.380912 -6.746025 2.880251 0
M  V30 64 H -5.618797 -5.031246 2.321891 0
M  V30 65 H -6.291564 -5.585088 3.917124 0
M  V30 66 H -3.898877 -5.492507 1.301365 0
M  V30 67 H -0.753447 1.305471 0.616442 0
M  V30 68 H -2.003593 2.238611 -0.245574 0
M  V30 69 H -0.026389 3.377828 1.318062 0
M  V30 70 H -0.826462 4.187274 -0.026285 0
M  V30 END ATOM
M  V30 BEGIN BOND
M  V30 1 1 1 2
M  V30 2 1 2 3
M  V30 3 2 3 4
M  V30 4 1 4 5
M  V30 5 2 5 6
M  V30 6 1 6 7
M  V30 7 2 7 8
M  V30 8 1 8 9
M  V30 9 1 9 10
M  V30 10 1 6 11
M  V30 11 1 11 12
M  V30 12 2 12 13
M  V30 13 1 12 14
M  V30 14 1 14 15
M  V30 15 1 15 16
M  V30 16 1 16 17
M  V30 17 1 17 18
M  V30 18 1 18 19
M  V30 19 1 18 20
M  V30 20 1 20 21
M  V30 21 1 21 22
M  V30 22 1 22 23
M  V30 23 2 23 24
M  V30 24 1 24 25
M  V30 25 1 25 26
M  V30 26 1 26 27
M  V30 27 2 25 28
M  V30 28 1 28 29
M  V30 29 1 29 30
M  V30 30 1 28 31
M  V30 31 2 31 32
M  V30 32 1 14 33
M  V30 33 1 33 34
M  V30 34 1 8 3
M  V30 35 1 32 21
M  V30 36 1 34 5
M  V30 37 1 32 23
M  V30 38 1 1 35
M  V30 39 1 1 36
M  V30 40 1 1 37
M  V30 41 1 4 38
M  V30 42 1 7 39
M  V30 43 1 10 40
M  V30 44 1 10 41
M  V30 45 1 10 42
M  V30 46 1 11 43
M  V30 47 1 11 44
M  V30 48 1 15 45
M  V30 49 1 15 46
M  V30 50 1 16 47
M  V30 51 1 16 48
M  V30 52 1 17 49
M  V30 53 1 17 50
M  V30 54 1 19 51
M  V30 55 1 19 52
M  V30 56 1 19 53
M  V30 57 1 20 54
M  V30 58 1 20 55
M  V30 59 1 21 56 CFG=3
M  V30 60 1 22 57
M  V30 61 1 22 58
M  V30 62 1 24 59
M  V30 63 1 27 60
M  V30 64 1 27 61
M  V30 65 1 27 62
M  V30 66 1 30 63
M  V30 67 1 30 64
M  V30 68 1 30 65
M  V30 69 1 31 66
M  V30 70 1 33 67
M  V30 71 1 33 68
M  V30 72 1 34 69
M  V30 73 1 34 70
M  V30 END BOND
M  V30 END CTAB
M  END
>  <Dataset>  (484) 
OralDrugs

>  <Ligand_Instance>  (484) 
nan

>  <PDB_ID>  (484) 
nan

>  <Standardized_SMILES>  (484) 
COc1cc2c(cc1OC)CC(=O)N(CCCN(C)C[C@H]1Cc3cc(OC)c(OC)cc31)CC2

>  <Name>  (484) 
Ivabradine

>  <Pocket>  (484) 
nan

>  <ATP_Site>  (484) 
nan

>  <Peripheral>  (484) 
nan

>  <Num_H_Atoms_ProtBoundConf>  (484) 
nan

>  <Num_Resolved_Atoms>  (484) 
nan

>  <Num_Not_Resolved_Atoms>  (484) 
nan

$$$$
CHEMBL2010601
     RDKit          3D

  0  0  0  0  0  0  0  0  0  0999 V3000
M  V30 BEGIN CTAB
M  V30 COUNTS 57 59 0 0 0
M  V30 BEGIN ATOM
M  V30 1 C 2.255993 -1.878531 5.370163 0
M  V30 2 C 2.898167 -1.023034 4.297848 0
M  V30 3 C 2.949330 0.394775 4.814312 0
M  V30 4 C 4.335608 -1.436826 4.054280 0
M  V30 5 C 2.103223 -1.059413 3.040795 0
M  V30 6 C 1.553534 0.074217 2.475136 0
M  V30 7 C 0.803850 0.130044 1.314927 0
M  V30 8 C 0.248731 1.365231 0.759192 0
M  V30 9 C 0.771648 1.652626 -0.644843 0
M  V30 10 C 0.820836 2.508218 1.614407 0
M  V30 11 C -1.226506 1.511354 0.774540 0
M  V30 12 C 0.633765 -1.106197 0.726250 0
M  V30 13 N -0.112772 -1.261231 -0.473700 0
M  V30 14 C -1.504358 -1.547696 -0.538151 0
M  V30 15 O -1.950371 -1.640123 0.659240 0
M  V30 16 C -2.310540 -1.713065 -1.710803 0
M  V30 17 C -3.660916 -1.991054 -1.456632 0
M  V30 18 N -4.542099 -2.171814 -2.455466 0
M  V30 19 C -4.219236 -2.104672 -3.758721 0
M  V30 20 C -5.140355 -2.293650 -4.768439 0
M  V30 21 C -4.702838 -2.202930 -6.093108 0
M  V30 22 C -3.360993 -1.926715 -6.352571 0
M  V30 23 C -2.427560 -1.735208 -5.346296 0
M  V30 24 C -2.902116 -1.833521 -4.062205 0
M  V30 25 C -1.987926 -1.645973 -3.048828 0
M  V30 26 O -0.798760 -1.401178 -3.281489 0
M  V30 27 C 1.147920 -2.285999 1.223987 0
M  V30 28 C 1.887996 -2.259059 2.390518 0
M  V30 29 O 2.405885 -3.444564 2.892294 0
M  V30 30 H 1.515680 -2.533582 4.846759 0
M  V30 31 H 1.660757 -1.237307 6.028652 0
M  V30 32 H 2.999593 -2.497155 5.908848 0
M  V30 33 H 1.912893 0.735531 5.014936 0
M  V30 34 H 3.447822 0.387309 5.823303 0
M  V30 35 H 3.439559 1.079031 4.118694 0
M  V30 36 H 5.031649 -0.925092 4.773494 0
M  V30 37 H 4.411011 -2.506788 4.294534 0
M  V30 38 H 4.696555 -1.185754 3.048621 0
M  V30 39 H 1.734842 1.018342 3.005694 0
M  V30 40 H 0.691103 2.758116 -0.784690 0
M  V30 41 H 1.830224 1.385133 -0.769196 0
M  V30 42 H 0.092885 1.221521 -1.410877 0
M  V30 43 H 0.507293 3.451154 1.107588 0
M  V30 44 H 0.323474 2.429684 2.594287 0
M  V30 45 H 1.908969 2.513941 1.632781 0
M  V30 46 H -1.702667 1.318846 -0.223748 0
M  V30 47 H -1.478941 2.572020 0.982030 0
M  V30 48 H -1.716204 0.943368 1.591922 0
M  V30 49 H 0.410942 -1.154932 -1.369128 0
M  V30 50 H -4.055816 -2.072865 -0.433668 0
M  V30 51 H -5.535034 -2.376226 -2.228752 0
M  V30 52 H -6.168309 -2.505269 -4.512440 0
M  V30 53 H -5.402622 -2.346481 -6.900736 0
M  V30 54 H -3.100139 -1.872482 -7.400626 0
M  V30 55 H -1.399243 -1.523513 -5.573302 0
M  V30 56 H 1.005439 -3.247080 0.750033 0
M  V30 57 H 3.031159 -4.017229 2.359439 0
M  V30 END ATOM
M  V30 BEGIN BOND
M  V30 1 1 1 2
M  V30 2 1 2 3
M  V30 3 1 2 4
M  V30 4 1 2 5
M  V30 5 2 5 6
M  V30 6 1 6 7
M  V30 7 1 7 8
M  V30 8 1 8 9
M  V30 9 1 8 10
M  V30 10 1 8 11
M  V30 11 2 7 12
M  V30 12 1 12 13
M  V30 13 1 13 14
M  V30 14 2 14 15
M  V30 15 1 14 16
M  V30 16 2 16 17
M  V30 17 1 17 18
M  V30 18 1 18 19
M  V30 19 2 19 20
M  V30 20 1 20 21
M  V30 21 2 21 22
M  V30 22 1 22 23
M  V30 23 2 23 24
M  V30 24 1 24 25
M  V30 25 2 25 26
M  V30 26 1 12 27
M  V30 27 2 27 28
M  V30 28 1 28 29
M  V30 29 1 28 5
M  V30 30 1 25 16
M  V30 31 1 24 19
M  V30 32 1 1 30
M  V30 33 1 1 31
M  V30 34 1 1 32
M  V30 35 1 3 33
M  V30 36 1 3 34
M  V30 37 1 3 35
M  V30 38 1 4 36
M  V30 39 1 4 37
M  V30 40 1 4 38
M  V30 41 1 6 39
M  V30 42 1 9 40
M  V30 43 1 9 41
M  V30 44 1 9 42
M  V30 45 1 10 43
M  V30 46 1 10 44
M  V30 47 1 10 45
M  V30 48 1 11 46
M  V30 49 1 11 47
M  V30 50 1 11 48
M  V30 51 1 13 49
M  V30 52 1 17 50
M  V30 53 1 18 51
M  V30 54 1 20 52
M  V30 55 1 21 53
M  V30 56 1 22 54
M  V30 57 1 23 55
M  V30 58 1 27 56
M  V30 59 1 29 57
M  V30 END BOND
M  V30 END CTAB
M  END
>  <Dataset>  (485) 
OralDrugs

>  <Ligand_Instance>  (485) 
nan

>  <PDB_ID>  (485) 
nan

>  <Standardized_SMILES>  (485) 
CC(C)(C)c1cc(C(C)(C)C)c(NC(=O)c2c[nH]c3ccccc3c2=O)cc1O

>  <Name>  (485) 
Ivacaftor

>  <Pocket>  (485) 
nan

>  <ATP_Site>  (485) 
nan

>  <Peripheral>  (485) 
nan

>  <Num_H_Atoms_ProtBoundConf>  (485) 
nan

>  <Num_Resolved_Atoms>  (485) 
nan

>  <Num_Not_Resolved_Atoms>  (485) 
nan

$$$$
CHEMBL3989958
     RDKit          3D

  0  0  0  0  0  0  0  0  0  0999 V3000
M  V30 BEGIN CTAB
M  V30 COUNTS 63 67 0 0 0
M  V30 BEGIN ATOM
M  V30 1 N 3.326493 -0.720665 5.998788 0
M  V30 2 C 2.561947 -0.155116 5.325772 0
M  V30 3 C 1.597260 0.549524 4.508650 0
M  V30 4 C 0.300519 0.674263 4.940047 0
M  V30 5 C -0.570571 1.365513 4.099938 0
M  V30 6 N -0.170000 1.877708 2.942314 0
M  V30 7 C 1.079958 1.789278 2.467330 0
M  V30 8 N 1.486785 2.346552 1.223073 0
M  V30 9 C 2.757185 2.344026 0.577435 0
M  V30 10 O 3.657477 1.523374 0.847810 0
M  V30 11 C 2.818238 3.425673 -0.415206 0
M  V30 12 C 1.456653 4.043119 -0.374255 0
M  V30 13 C 0.560611 3.073861 0.350706 0 CFG=1
M  V30 14 C -0.160235 2.215120 -0.589534 0
M  V30 15 O -0.868184 3.053273 -1.250191 0
M  V30 16 N -0.178638 0.791555 -0.832395 0
M  V30 17 C 0.525065 -0.301611 -0.211080 0
M  V30 18 C 1.700714 -0.521502 -0.900844 0
M  V30 19 N 2.565089 -1.507359 -0.519358 0
M  V30 20 C 2.257327 -2.271242 0.546865 0
M  V30 21 C 1.091089 -2.069626 1.249006 0
M  V30 22 F 0.696857 -2.789093 2.335495 0
M  V30 23 C 0.204659 -1.080311 0.881302 0
M  V30 24 C -1.053844 0.376221 -1.904406 0 CFG=2
M  V30 25 C -2.227099 -0.425220 -1.427567 0
M  V30 26 O -2.828336 -0.927677 -0.443697 0
M  V30 27 N -3.010956 -0.778437 -2.578312 0
M  V30 28 C -4.225034 -1.554512 -2.514936 0
M  V30 29 C -5.410720 -1.007552 -3.282932 0
M  V30 30 C -5.800508 -2.483337 -3.454497 0
M  V30 31 F -6.362806 -2.937291 -2.280044 0
M  V30 32 F -6.452273 -2.785299 -4.613575 0
M  V30 33 C -4.285841 -2.741075 -3.463487 0
M  V30 34 C -0.370772 -0.279835 -3.031221 0
M  V30 35 C -0.196233 -1.644691 -2.767735 0
M  V30 36 C 0.432975 -2.484136 -3.692384 0
M  V30 37 C 0.876376 -1.912463 -4.878213 0
M  V30 38 C 0.703445 -0.575058 -5.132524 0
M  V30 39 C 0.088214 0.240040 -4.225997 0
M  V30 40 Cl -0.237664 1.957341 -4.343043 0
M  V30 41 C 1.948858 1.110305 3.285704 0
M  V30 42 H 0.024164 0.235899 5.896818 0
M  V30 43 H -1.592165 1.467772 4.432367 0
M  V30 44 H 3.581573 4.193926 -0.118892 0
M  V30 45 H 3.119713 3.095868 -1.430444 0
M  V30 46 H 1.495578 5.016750 0.137058 0
M  V30 47 H 1.070742 4.254845 -1.411258 0
M  V30 48 H -0.118451 3.702127 0.999982 0
M  V30 49 H 2.094458 -0.005217 -1.767924 0
M  V30 50 H 2.882461 -3.072454 0.917727 0
M  V30 51 H -0.738802 -0.785433 1.311458 0
M  V30 52 H -1.511546 1.322580 -2.298199 0
M  V30 53 H -2.882974 -0.571399 -3.596069 0
M  V30 54 H -4.565318 -1.892680 -1.525574 0
M  V30 55 H -5.124258 -0.647391 -4.304629 0
M  V30 56 H -6.115850 -0.392758 -2.729853 0
M  V30 57 H -3.894064 -2.531001 -4.480622 0
M  V30 58 H -3.978131 -3.691297 -3.002475 0
M  V30 59 H -0.500839 -2.190475 -1.882802 0
M  V30 60 H 0.600351 -3.525686 -3.562511 0
M  V30 61 H 1.372380 -2.492406 -5.644620 0
M  V30 62 H 1.019408 -0.051654 -6.030861 0
M  V30 63 H 2.979701 0.971984 3.015551 0
M  V30 END ATOM
M  V30 BEGIN BOND
M  V30 1 3 1 2
M  V30 2 1 2 3
M  V30 3 2 3 4
M  V30 4 1 4 5
M  V30 5 2 5 6
M  V30 6 1 6 7
M  V30 7 1 7 8
M  V30 8 1 8 9
M  V30 9 2 9 10
M  V30 10 1 9 11
M  V30 11 1 11 12
M  V30 12 1 12 13
M  V30 13 1 13 14
M  V30 14 2 14 15
M  V30 15 1 14 16
M  V30 16 1 16 17
M  V30 17 2 17 18
M  V30 18 1 18 19
M  V30 19 2 19 20
M  V30 20 1 20 21
M  V30 21 1 21 22
M  V30 22 2 21 23
M  V30 23 1 16 24
M  V30 24 1 24 25
M  V30 25 2 25 26
M  V30 26 1 25 27
M  V30 27 1 27 28
M  V30 28 1 28 29
M  V30 29 1 29 30
M  V30 30 1 30 31
M  V30 31 1 30 32
M  V30 32 1 30 33
M  V30 33 1 24 34
M  V30 34 2 34 35
M  V30 35 1 35 36
M  V30 36 2 36 37
M  V30 37 1 37 38
M  V30 38 2 38 39
M  V30 39 1 39 40
M  V30 40 2 7 41
M  V30 41 1 41 3
M  V30 42 1 13 8
M  V30 43 1 23 17
M  V30 44 1 33 28
M  V30 45 1 39 34
M  V30 46 1 4 42
M  V30 47 1 5 43
M  V30 48 1 11 44
M  V30 49 1 11 45
M  V30 50 1 12 46
M  V30 51 1 12 47
M  V30 52 1 13 48 CFG=1
M  V30 53 1 18 49
M  V30 54 1 20 50
M  V30 55 1 23 51
M  V30 56 1 24 52 CFG=3
M  V30 57 1 27 53
M  V30 58 1 28 54
M  V30 59 1 29 55
M  V30 60 1 29 56
M  V30 61 1 33 57
M  V30 62 1 33 58
M  V30 63 1 35 59
M  V30 64 1 36 60
M  V30 65 1 37 61
M  V30 66 1 38 62
M  V30 67 1 41 63
M  V30 END BOND
M  V30 END CTAB
M  END
>  <Dataset>  (486) 
OralDrugs

>  <Ligand_Instance>  (486) 
nan

>  <PDB_ID>  (486) 
nan

>  <Standardized_SMILES>  (486) 
N#Cc1ccnc(N2C(=O)CC[C@H]2C(=O)N(c2cncc(F)c2)[C@H](C(=O)NC2CC(F)(F)C2)c2ccccc2Cl)c1

>  <Name>  (486) 
Ivosidenib

>  <Pocket>  (486) 
nan

>  <ATP_Site>  (486) 
nan

>  <Peripheral>  (486) 
nan

>  <Num_H_Atoms_ProtBoundConf>  (486) 
nan

>  <Num_Resolved_Atoms>  (486) 
nan

>  <Num_Not_Resolved_Atoms>  (486) 
nan

$$$$
CHEMBL1384
     RDKit          3D

  0  0  0  0  0  0  0  0  0  0999 V3000
M  V30 BEGIN CTAB
M  V30 COUNTS 69 71 0 0 0
M  V30 BEGIN ATOM
M  V30 1 N 2.836937 -2.711156 6.557034 0
M  V30 2 C 2.872864 -2.074277 5.282271 0
M  V30 3 C 1.481317 -1.821340 4.686012 0 CFG=1
M  V30 4 O 1.706005 -1.212745 3.480031 0
M  V30 5 C 0.986255 -1.757203 2.425898 0 CFG=2
M  V30 6 O 0.914471 -0.898226 1.346551 0
M  V30 7 C 1.485529 -1.422195 0.176072 0 CFG=1
M  V30 8 C 0.461943 -1.592088 -0.875278 0 CFG=2
M  V30 9 O 0.635130 -2.840503 -1.494675 0
M  V30 10 C 0.355610 -0.483063 -1.895481 0 CFG=1
M  V30 11 O -0.683661 0.318012 -1.621236 0
M  V30 12 C -1.791258 0.390386 -2.377620 0 CFG=1
M  V30 13 O -2.826806 -0.050543 -1.586657 0
M  V30 14 C -4.012103 0.598592 -1.637149 0 CFG=2
M  V30 15 C -4.895528 0.141092 -2.800650 0
M  V30 16 O -5.182884 -1.218733 -2.699045 0
M  V30 17 C -3.933675 2.093999 -1.563915 0 CFG=1
M  V30 18 O -4.493133 2.627960 -0.401925 0
M  V30 19 C -2.511513 2.599551 -1.662577 0 CFG=2
M  V30 20 N -2.459742 4.009066 -1.910887 0
M  V30 21 C -1.926745 1.824504 -2.845015 0 CFG=1
M  V30 22 O -0.695737 2.408759 -3.059532 0
M  V30 23 C 1.675995 0.116679 -2.244203 0 CFG=2
M  V30 24 N 2.449665 -0.967094 -2.883255 0
M  V30 25 C 2.515903 0.524946 -1.078689 0
M  V30 26 C 2.689973 -0.611915 -0.122479 0 CFG=2
M  V30 27 N 3.801828 -1.423295 -0.615034 0
M  V30 28 C -0.439221 -2.090029 2.822591 0 CFG=2
M  V30 29 O -1.120256 -0.965286 3.283312 0
M  V30 30 C -0.443578 -3.203627 3.817847 0 CFG=1
M  V30 31 O -0.666030 -4.414914 3.165256 0
M  V30 32 C 0.851267 -3.187181 4.571319 0 CFG=2
M  V30 33 O 0.530838 -3.564629 5.896109 0
M  V30 34 H 2.957827 -2.085129 7.363584 0
M  V30 35 H 3.417704 -3.569838 6.587819 0
M  V30 36 H 3.490528 -1.165784 5.259963 0
M  V30 37 H 3.378137 -2.783306 4.563393 0
M  V30 38 H 0.942647 -1.169270 5.402203 0
M  V30 39 H 1.482089 -2.729154 2.207334 0
M  V30 40 H 1.840993 -2.428221 0.497118 0
M  V30 41 H -0.535608 -1.688834 -0.391601 0
M  V30 42 H 1.452183 -3.293525 -1.177789 0
M  V30 43 H 0.027497 -0.991436 -2.834911 0
M  V30 44 H -1.827240 -0.251053 -3.275479 0
M  V30 45 H -4.571213 0.284465 -0.716196 0
M  V30 46 H -5.874435 0.653185 -2.777031 0
M  V30 47 H -4.363143 0.283940 -3.764417 0
M  V30 48 H -5.153628 -1.644057 -3.571919 0
M  V30 49 H -4.457908 2.496422 -2.458199 0
M  V30 50 H -5.453368 2.411298 -0.343486 0
M  V30 51 H -1.917212 2.292663 -0.775995 0
M  V30 52 H -2.391357 4.583095 -1.036450 0
M  V30 53 H -1.610480 4.285308 -2.486907 0
M  V30 54 H -2.603752 1.914191 -3.717527 0
M  V30 55 H -0.781646 3.012444 -3.848120 0
M  V30 56 H 1.569759 0.862189 -3.023307 0
M  V30 57 H 1.910855 -1.342890 -3.696562 0
M  V30 58 H 3.288926 -0.502159 -3.316491 0
M  V30 59 H 2.211502 1.452605 -0.565321 0
M  V30 60 H 3.513851 0.774549 -1.527408 0
M  V30 61 H 3.095462 -0.158762 0.809697 0
M  V30 62 H 3.959901 -2.159768 0.126967 0
M  V30 63 H 4.647508 -0.804135 -0.575651 0
M  V30 64 H -0.951557 -2.439009 1.899303 0
M  V30 65 H -0.417025 -0.325222 3.559261 0
M  V30 66 H -1.320875 -3.061907 4.513757 0
M  V30 67 H -1.388339 -4.952585 3.601097 0
M  V30 68 H 1.580544 -3.951328 4.237595 0
M  V30 69 H 0.290049 -2.758263 6.421000 0
M  V30 END ATOM
M  V30 BEGIN BOND
M  V30 1 1 1 2
M  V30 2 1 2 3
M  V30 3 1 3 4
M  V30 4 1 4 5
M  V30 5 1 5 6
M  V30 6 1 6 7
M  V30 7 1 7 8
M  V30 8 1 8 9
M  V30 9 1 8 10
M  V30 10 1 10 11
M  V30 11 1 11 12
M  V30 12 1 12 13
M  V30 13 1 13 14
M  V30 14 1 14 15
M  V30 15 1 15 16
M  V30 16 1 14 17
M  V30 17 1 17 18
M  V30 18 1 17 19
M  V30 19 1 19 20
M  V30 20 1 19 21
M  V30 21 1 21 22
M  V30 22 1 10 23
M  V30 23 1 23 24
M  V30 24 1 23 25
M  V30 25 1 25 26
M  V30 26 1 26 27
M  V30 27 1 5 28
M  V30 28 1 28 29
M  V30 29 1 28 30
M  V30 30 1 30 31
M  V30 31 1 30 32
M  V30 32 1 32 33
M  V30 33 1 32 3
M  V30 34 1 26 7
M  V30 35 1 21 12
M  V30 36 1 1 34
M  V30 37 1 1 35
M  V30 38 1 2 36
M  V30 39 1 2 37
M  V30 40 1 3 38 CFG=1
M  V30 41 1 5 39 CFG=3
M  V30 42 1 7 40 CFG=1
M  V30 43 1 8 41 CFG=1
M  V30 44 1 9 42
M  V30 45 1 10 43 CFG=3
M  V30 46 1 12 44 CFG=3
M  V30 47 1 14 45 CFG=1
M  V30 48 1 15 46
M  V30 49 1 15 47
M  V30 50 1 16 48
M  V30 51 1 17 49 CFG=3
M  V30 52 1 18 50
M  V30 53 1 19 51 CFG=1
M  V30 54 1 20 52
M  V30 55 1 20 53
M  V30 56 1 21 54 CFG=3
M  V30 57 1 22 55
M  V30 58 1 23 56 CFG=3
M  V30 59 1 24 57
M  V30 60 1 24 58
M  V30 61 1 25 59
M  V30 62 1 25 60
M  V30 63 1 26 61 CFG=1
M  V30 64 1 27 62
M  V30 65 1 27 63
M  V30 66 1 28 64 CFG=3
M  V30 67 1 29 65
M  V30 68 1 30 66 CFG=1
M  V30 69 1 31 67
M  V30 70 1 32 68 CFG=3
M  V30 71 1 33 69
M  V30 END BOND
M  V30 END CTAB
M  END
>  <Dataset>  (487) 
OralDrugs

>  <Ligand_Instance>  (487) 
nan

>  <PDB_ID>  (487) 
nan

>  <Standardized_SMILES>  (487) 
NC[C@H]1O[C@H](O[C@H]2[C@H](O)[C@@H](O[C@H]3O[C@H](CO)[C@@H](O)[C@H](N)[C@H]3O)[C@H](N)C[C@@H]2N)[C@H](O)[C@@H](O)[C@@H]1O

>  <Name>  (487) 
Kanamycin

>  <Pocket>  (487) 
nan

>  <ATP_Site>  (487) 
nan

>  <Peripheral>  (487) 
nan

>  <Num_H_Atoms_ProtBoundConf>  (487) 
nan

>  <Num_Resolved_Atoms>  (487) 
nan

>  <Num_Not_Resolved_Atoms>  (487) 
nan

$$$$
CHEMBL571
     RDKit          3D

  0  0  0  0  0  0  0  0  0  0999 V3000
M  V30 BEGIN CTAB
M  V30 COUNTS 33 34 0 0 0
M  V30 BEGIN ATOM
M  V30 1 C -1.766757 -2.827480 2.116677 0
M  V30 2 C -0.399842 -3.316163 1.758131 0
M  V30 3 C 0.666524 -2.845868 2.675952 0
M  V30 4 O 1.385760 -3.662851 3.350650 0
M  V30 5 O 1.064980 -1.547418 2.963685 0
M  V30 6 C -0.037850 -2.813478 0.398261 0
M  V30 7 C 0.431387 -3.633248 -0.619542 0
M  V30 8 C 0.728309 -3.080590 -1.847057 0
M  V30 9 C 0.556882 -1.726070 -2.050206 0
M  V30 10 C 0.098666 -0.868541 -1.087800 0
M  V30 11 C -0.082327 0.548846 -1.366777 0
M  V30 12 O -0.340156 0.780264 -2.558594 0
M  V30 13 C 0.000749 1.670020 -0.439518 0
M  V30 14 C 0.725891 1.573882 0.735953 0
M  V30 15 C 0.775765 2.655705 1.625567 0
M  V30 16 C 0.083467 3.795265 1.282495 0
M  V30 17 C -0.640835 3.923414 0.131972 0
M  V30 18 C -0.676365 2.832512 -0.740442 0
M  V30 19 C -0.194377 -1.452353 0.144255 0
M  V30 20 H -1.796083 -1.763298 2.431319 0
M  V30 21 H -2.404877 -2.902274 1.202915 0
M  V30 22 H -2.229095 -3.515570 2.857650 0
M  V30 23 H -0.383882 -4.403194 1.771847 0
M  V30 24 H 2.056020 -1.288681 2.919266 0
M  V30 25 H 0.553336 -4.696896 -0.417416 0
M  V30 26 H 1.089556 -3.741845 -2.608333 0
M  V30 27 H 0.815875 -1.396723 -3.031688 0
M  V30 28 H 1.274933 0.653723 0.983628 0
M  V30 29 H 1.363696 2.492241 2.516326 0
M  V30 30 H 0.205023 4.555523 2.055841 0
M  V30 31 H -1.145370 4.879015 -0.024234 0
M  V30 32 H -1.268529 2.969949 -1.655042 0
M  V30 33 H -0.569497 -0.829890 0.959366 0
M  V30 END ATOM
M  V30 BEGIN BOND
M  V30 1 1 1 2
M  V30 2 1 2 3
M  V30 3 2 3 4
M  V30 4 1 3 5
M  V30 5 1 2 6
M  V30 6 2 6 7
M  V30 7 1 7 8
M  V30 8 2 8 9
M  V30 9 1 9 10
M  V30 10 1 10 11
M  V30 11 2 11 12
M  V30 12 1 11 13
M  V30 13 2 13 14
M  V30 14 1 14 15
M  V30 15 2 15 16
M  V30 16 1 16 17
M  V30 17 2 17 18
M  V30 18 2 10 19
M  V30 19 1 19 6
M  V30 20 1 18 13
M  V30 21 1 1 20
M  V30 22 1 1 21
M  V30 23 1 1 22
M  V30 24 1 2 23
M  V30 25 1 5 24
M  V30 26 1 7 25
M  V30 27 1 8 26
M  V30 28 1 9 27
M  V30 29 1 14 28
M  V30 30 1 15 29
M  V30 31 1 16 30
M  V30 32 1 17 31
M  V30 33 1 18 32
M  V30 34 1 19 33
M  V30 END BOND
M  V30 END CTAB
M  END
>  <Dataset>  (488) 
OralDrugs

>  <Ligand_Instance>  (488) 
nan

>  <PDB_ID>  (488) 
nan

>  <Standardized_SMILES>  (488) 
CC(C(=O)O)c1cccc(C(=O)c2ccccc2)c1

>  <Name>  (488) 
Ketoprofen

>  <Pocket>  (488) 
nan

>  <ATP_Site>  (488) 
nan

>  <Peripheral>  (488) 
nan

>  <Num_H_Atoms_ProtBoundConf>  (488) 
nan

>  <Num_Resolved_Atoms>  (488) 
nan

>  <Num_Not_Resolved_Atoms>  (488) 
nan

$$$$
CHEMBL469
     RDKit          3D

  0  0  0  0  0  0  0  0  0  0999 V3000
M  V30 BEGIN CTAB
M  V30 COUNTS 32 34 0 0 0
M  V30 BEGIN ATOM
M  V30 1 O 0.101051 -3.575749 -0.368539 0
M  V30 2 C 0.436017 -2.436034 0.141606 0
M  V30 3 C 1.405679 -2.638286 1.170174 0
M  V30 4 C 2.376099 -1.757799 1.573746 0
M  V30 5 C 3.289488 -1.910502 2.589667 0
M  V30 6 C 3.238137 -3.087599 3.300011 0
M  V30 7 C 2.302784 -4.035688 2.972921 0
M  V30 8 C 1.427450 -3.797963 1.940513 0
M  V30 9 C -0.226604 -1.289642 -0.434810 0
M  V30 10 C -0.934433 -1.438804 -1.608855 0
M  V30 11 C -1.499544 -0.203175 -1.918766 0
M  V30 12 C -1.091971 0.622320 -0.899223 0
M  V30 13 N -0.326013 -0.001293 0.007036 0
M  V30 14 C 0.053364 0.909626 1.039618 0
M  V30 15 C -0.424825 2.273117 0.608349 0
M  V30 16 C -1.332971 2.075630 -0.572716 0
M  V30 17 C -2.735932 2.242561 -0.041831 0
M  V30 18 O -3.076707 2.717055 1.078529 0
M  V30 19 O -3.937119 1.915042 -0.660209 0
M  V30 20 H 2.484382 -0.825941 1.039193 0
M  V30 21 H 4.027838 -1.196069 2.868282 0
M  V30 22 H 3.885698 -3.338516 4.112198 0
M  V30 23 H 2.237881 -4.975036 3.514207 0
M  V30 24 H 0.695697 -4.594136 1.721776 0
M  V30 25 H -1.131107 -2.263898 -2.304613 0
M  V30 26 H -2.121893 0.024645 -2.780984 0
M  V30 27 H 1.146257 1.018503 1.204199 0
M  V30 28 H -0.358090 0.625546 2.050021 0
M  V30 29 H -0.926690 2.720590 1.486108 0
M  V30 30 H 0.424720 2.922444 0.248822 0
M  V30 31 H -1.121299 2.730296 -1.423226 0
M  V30 32 H -4.589459 1.224460 -0.245831 0
M  V30 END ATOM
M  V30 BEGIN BOND
M  V30 1 2 1 2
M  V30 2 1 2 3
M  V30 3 2 3 4
M  V30 4 1 4 5
M  V30 5 2 5 6
M  V30 6 1 6 7
M  V30 7 2 7 8
M  V30 8 1 2 9
M  V30 9 2 9 10
M  V30 10 1 10 11
M  V30 11 2 11 12
M  V30 12 1 12 13
M  V30 13 1 13 14
M  V30 14 1 14 15
M  V30 15 1 15 16
M  V30 16 1 16 17
M  V30 17 2 17 18
M  V30 18 1 17 19
M  V30 19 1 8 3
M  V30 20 1 13 9
M  V30 21 1 16 12
M  V30 22 1 4 20
M  V30 23 1 5 21
M  V30 24 1 6 22
M  V30 25 1 7 23
M  V30 26 1 8 24
M  V30 27 1 10 25
M  V30 28 1 11 26
M  V30 29 1 14 27
M  V30 30 1 14 28
M  V30 31 1 15 29
M  V30 32 1 15 30
M  V30 33 1 16 31
M  V30 34 1 19 32
M  V30 END BOND
M  V30 END CTAB
M  END
>  <Dataset>  (489) 
OralDrugs

>  <Ligand_Instance>  (489) 
nan

>  <PDB_ID>  (489) 
nan

>  <Standardized_SMILES>  (489) 
O=C(c1ccccc1)c1ccc2n1CCC2C(=O)O

>  <Name>  (489) 
Ketorolac

>  <Pocket>  (489) 
nan

>  <ATP_Site>  (489) 
nan

>  <Peripheral>  (489) 
nan

>  <Num_H_Atoms_ProtBoundConf>  (489) 
nan

>  <Num_Resolved_Atoms>  (489) 
nan

>  <Num_Not_Resolved_Atoms>  (489) 
nan

$$$$
CHEMBL429
     RDKit          3D

  0  0  0  0  0  0  0  0  0  0999 V3000
M  V30 BEGIN CTAB
M  V30 COUNTS 48 49 0 0 0
M  V30 BEGIN ATOM
M  V30 1 C 0.802393 -3.235108 2.024030 0
M  V30 2 C 1.091911 -1.756353 1.572697 0
M  V30 3 C 0.367494 -1.649187 0.248180 0
M  V30 4 C 0.904424 -2.643652 -0.785413 0
M  V30 5 C 2.326979 -2.345579 -1.085588 0
M  V30 6 C 2.518952 -1.413345 -2.119572 0
M  V30 7 C 3.744011 -0.968889 -2.586568 0
M  V30 8 C 4.873988 -1.471472 -2.000508 0
M  V30 9 C 4.732482 -2.379981 -0.991828 0
M  V30 10 C 3.502936 -2.807328 -0.544451 0
M  V30 11 N 0.566920 -0.975687 2.616866 0
M  V30 12 C 0.890655 0.350811 2.844765 0
M  V30 13 C 0.384104 1.360554 1.859285 0
M  V30 14 O 0.814010 2.658344 2.275381 0
M  V30 15 C -1.078397 1.336634 1.755284 0
M  V30 16 C -1.701653 1.742729 2.939747 0
M  V30 17 C -3.075601 1.818390 3.044750 0
M  V30 18 C -3.895962 1.495718 1.982852 0
M  V30 19 O -5.280091 1.518020 1.921408 0
M  V30 20 C -3.301740 1.093020 0.806169 0
M  V30 21 C -3.938078 0.711947 -0.473213 0
M  V30 22 N -5.344652 0.806885 -0.526090 0
M  V30 23 O -3.369182 0.310799 -1.529481 0
M  V30 24 C -1.929109 1.024086 0.722261 0
M  V30 25 H 0.997805 -3.298901 3.118589 0
M  V30 26 H -0.281083 -3.397251 1.869970 0
M  V30 27 H 1.400012 -3.924698 1.428813 0
M  V30 28 H 2.188048 -1.748123 1.475241 0
M  V30 29 H 0.453185 -0.687137 -0.249303 0
M  V30 30 H -0.705124 -1.873556 0.403622 0
M  V30 31 H 0.312790 -2.488346 -1.702393 0
M  V30 32 H 0.730826 -3.694308 -0.463418 0
M  V30 33 H 1.659861 -0.971697 -2.631546 0
M  V30 34 H 3.794737 -0.243158 -3.392626 0
M  V30 35 H 5.851585 -1.152904 -2.331150 0
M  V30 36 H 5.586194 -2.825479 -0.477031 0
M  V30 37 H 3.371658 -3.525914 0.246878 0
M  V30 38 H -0.366775 -1.232269 2.957492 0
M  V30 39 H 2.011394 0.480183 2.982600 0
M  V30 40 H 0.504831 0.723975 3.860967 0
M  V30 41 H 0.877969 1.213262 0.896529 0
M  V30 42 H 1.752588 2.605219 2.603776 0
M  V30 43 H -1.201556 2.025758 3.843919 0
M  V30 44 H -3.612787 2.123445 3.929854 0
M  V30 45 H -5.833038 0.683742 2.063546 0
M  V30 46 H -5.564792 -0.149712 -0.170312 0
M  V30 47 H -6.376722 0.886487 -0.568590 0
M  V30 48 H -1.414377 0.722816 -0.171666 0
M  V30 END ATOM
M  V30 BEGIN BOND
M  V30 1 1 1 2
M  V30 2 1 2 3
M  V30 3 1 3 4
M  V30 4 1 4 5
M  V30 5 2 5 6
M  V30 6 1 6 7
M  V30 7 2 7 8
M  V30 8 1 8 9
M  V30 9 2 9 10
M  V30 10 1 2 11
M  V30 11 1 11 12
M  V30 12 1 12 13
M  V30 13 1 13 14
M  V30 14 1 13 15
M  V30 15 2 15 16
M  V30 16 1 16 17
M  V30 17 2 17 18
M  V30 18 1 18 19
M  V30 19 1 18 20
M  V30 20 1 20 21
M  V30 21 1 21 22
M  V30 22 2 21 23
M  V30 23 2 20 24
M  V30 24 1 10 5
M  V30 25 1 24 15
M  V30 26 1 1 25
M  V30 27 1 1 26
M  V30 28 1 1 27
M  V30 29 1 2 28
M  V30 30 1 3 29
M  V30 31 1 3 30
M  V30 32 1 4 31
M  V30 33 1 4 32
M  V30 34 1 6 33
M  V30 35 1 7 34
M  V30 36 1 8 35
M  V30 37 1 9 36
M  V30 38 1 10 37
M  V30 39 1 11 38
M  V30 40 1 12 39
M  V30 41 1 12 40
M  V30 42 1 13 41
M  V30 43 1 14 42
M  V30 44 1 16 43
M  V30 45 1 17 44
M  V30 46 1 19 45
M  V30 47 1 22 46
M  V30 48 1 22 47
M  V30 49 1 24 48
M  V30 END BOND
M  V30 END CTAB
M  END
>  <Dataset>  (490) 
OralDrugs

>  <Ligand_Instance>  (490) 
nan

>  <PDB_ID>  (490) 
nan

>  <Standardized_SMILES>  (490) 
CC(CCc1ccccc1)NCC(O)c1ccc(O)c(C(N)=O)c1

>  <Name>  (490) 
Labetalol

>  <Pocket>  (490) 
nan

>  <ATP_Site>  (490) 
nan

>  <Peripheral>  (490) 
nan

>  <Num_H_Atoms_ProtBoundConf>  (490) 
nan

>  <Num_Resolved_Atoms>  (490) 
nan

>  <Num_Not_Resolved_Atoms>  (490) 
nan

$$$$
CHEMBL58323
     RDKit          3D

  0  0  0  0  0  0  0  0  0  0999 V3000
M  V30 BEGIN CTAB
M  V30 COUNTS 36 36 0 0 0
M  V30 BEGIN ATOM
M  V30 1 C -2.307645 -1.259074 3.636978 0
M  V30 2 O -1.161399 -1.949214 3.215492 0
M  V30 3 C -0.790423 -1.482070 1.922648 0
M  V30 4 C 0.420373 -2.218928 1.547007 0 CFG=1
M  V30 5 N 0.264959 -3.662956 1.507882 0
M  V30 6 C -0.410621 -3.860839 0.245350 0
M  V30 7 C -0.992130 -4.961438 -0.607205 0
M  V30 8 O -0.586391 -2.764991 -0.370261 0
M  V30 9 C 1.162329 -1.748871 0.353230 0
M  V30 10 O 2.054539 -2.475228 -0.140299 0
M  V30 11 N 0.855175 -0.514348 -0.205725 0
M  V30 12 C 1.326229 0.306388 -1.293208 0
M  V30 13 C 1.737400 1.655155 -0.819969 0
M  V30 14 C 0.498266 2.377604 -0.849933 0
M  V30 15 C 0.324238 3.720802 -0.527712 0
M  V30 16 C 1.498202 4.379241 -0.145024 0
M  V30 17 C 2.701539 3.721167 -0.104442 0
M  V30 18 C 2.837609 2.363210 -0.434191 0
M  V30 19 H -3.110916 -1.463105 2.876110 0
M  V30 20 H -2.146694 -0.179148 3.766646 0
M  V30 21 H -2.670849 -1.735727 4.567008 0
M  V30 22 H -1.639261 -1.520890 1.244327 0
M  V30 23 H -0.498355 -0.412330 2.147584 0
M  V30 24 H 1.181078 -2.021938 2.393089 0
M  V30 25 H 0.359684 -4.658351 1.867603 0
M  V30 26 H -2.030471 -4.679214 -0.889471 0
M  V30 27 H -0.404980 -4.967807 -1.539930 0
M  V30 28 H -0.989174 -5.931289 -0.114344 0
M  V30 29 H 0.075852 0.065584 0.230747 0
M  V30 30 H 0.665910 0.317065 -2.172268 0
M  V30 31 H 2.295668 -0.159415 -1.697812 0
M  V30 32 H -0.516280 2.022845 -1.121607 0
M  V30 33 H -0.597847 4.302516 -0.541686 0
M  V30 34 H 1.494908 5.437065 0.126215 0
M  V30 35 H 3.649312 4.149266 0.179731 0
M  V30 36 H 3.663832 1.682391 -0.457576 0
M  V30 END ATOM
M  V30 BEGIN BOND
M  V30 1 1 1 2
M  V30 2 1 2 3
M  V30 3 1 3 4
M  V30 4 1 4 5
M  V30 5 1 5 6
M  V30 6 1 6 7
M  V30 7 2 6 8
M  V30 8 1 4 9
M  V30 9 2 9 10
M  V30 10 1 9 11
M  V30 11 1 11 12
M  V30 12 1 12 13
M  V30 13 2 13 14
M  V30 14 1 14 15
M  V30 15 2 15 16
M  V30 16 1 16 17
M  V30 17 2 17 18
M  V30 18 1 18 13
M  V30 19 1 1 19
M  V30 20 1 1 20
M  V30 21 1 1 21
M  V30 22 1 3 22
M  V30 23 1 3 23
M  V30 24 1 4 24 CFG=1
M  V30 25 1 5 25
M  V30 26 1 7 26
M  V30 27 1 7 27
M  V30 28 1 7 28
M  V30 29 1 11 29
M  V30 30 1 12 30
M  V30 31 1 12 31
M  V30 32 1 14 32
M  V30 33 1 15 33
M  V30 34 1 16 34
M  V30 35 1 17 35
M  V30 36 1 18 36
M  V30 END BOND
M  V30 END CTAB
M  END
>  <Dataset>  (491) 
OralDrugs

>  <Ligand_Instance>  (491) 
nan

>  <PDB_ID>  (491) 
nan

>  <Standardized_SMILES>  (491) 
COC[C@@H](NC(C)=O)C(=O)NCc1ccccc1

>  <Name>  (491) 
Lacosamide

>  <Pocket>  (491) 
nan

>  <ATP_Site>  (491) 
nan

>  <Peripheral>  (491) 
nan

>  <Num_H_Atoms_ProtBoundConf>  (491) 
nan

>  <Num_Resolved_Atoms>  (491) 
nan

>  <Num_Not_Resolved_Atoms>  (491) 
nan

$$$$
CHEMBL1661
     RDKit          3D

  0  0  0  0  0  0  0  0  0  0999 V3000
M  V30 BEGIN CTAB
M  V30 COUNTS 47 47 0 0 0
M  V30 BEGIN ATOM
M  V30 1 O 0.084309 -3.891676 1.645818 0
M  V30 2 C 0.117073 -3.573580 2.955682 0
M  V30 3 C -0.776541 -2.374676 3.263530 0 CFG=1
M  V30 4 O -0.615259 -2.273969 4.684724 0
M  V30 5 C -0.300971 -1.082694 2.639705 0 CFG=1
M  V30 6 O -0.491046 -0.972738 1.369947 0
M  V30 7 C 0.250501 -0.938388 0.297770 0 CFG=2
M  V30 8 O 0.264359 0.309660 -0.391886 0
M  V30 9 C 1.129526 0.139260 -1.500042 0 CFG=2
M  V30 10 C 1.507635 1.526579 -2.038794 0
M  V30 11 O 2.367001 1.391752 -3.140591 0
M  V30 12 C 0.407084 -0.584509 -2.616035 0 CFG=2
M  V30 13 O 0.033688 0.224364 -3.663274 0
M  V30 14 C -0.831206 -1.171308 -1.939420 0 CFG=2
M  V30 15 O -1.575933 -0.090040 -1.470103 0
M  V30 16 C -0.290420 -1.899631 -0.720949 0 CFG=1
M  V30 17 O 0.722865 -2.774946 -1.137605 0
M  V30 18 C -0.638922 0.047450 3.567456 0 CFG=2
M  V30 19 O -1.941357 0.469070 3.562193 0
M  V30 20 C 0.360373 1.165620 3.601303 0 CFG=1
M  V30 21 O 1.674805 0.692071 3.575349 0
M  V30 22 C 0.159092 2.256586 2.610357 0
M  V30 23 O -1.148156 2.746109 2.586428 0
M  V30 24 H 0.227192 -4.872489 1.481514 0
M  V30 25 H 1.167906 -3.296368 3.274076 0
M  V30 26 H -0.225903 -4.438719 3.559802 0
M  V30 27 H -1.812977 -2.645127 3.050891 0
M  V30 28 H -1.250117 -2.873382 5.144308 0
M  V30 29 H 0.839972 -1.154288 2.786052 0
M  V30 30 H 1.334762 -1.131116 0.430964 0
M  V30 31 H 2.049391 -0.410670 -1.213332 0
M  V30 32 H 0.628717 2.061553 -2.412992 0
M  V30 33 H 1.978015 2.115919 -1.230223 0
M  V30 34 H 2.279270 2.210705 -3.704681 0
M  V30 35 H 1.044993 -1.445752 -2.959066 0
M  V30 36 H 0.444240 -0.083921 -4.495675 0
M  V30 37 H -1.384684 -1.847913 -2.589517 0
M  V30 38 H -2.485051 -0.059015 -1.862842 0
M  V30 39 H -1.147801 -2.516084 -0.313366 0
M  V30 40 H 0.385590 -3.396709 -1.819534 0
M  V30 41 H -0.521675 -0.424275 4.608099 0
M  V30 42 H -2.110284 1.262967 4.111743 0
M  V30 43 H 0.247933 1.660126 4.629617 0
M  V30 44 H 2.268074 1.466530 3.494364 0
M  V30 45 H 0.581031 2.043574 1.614857 0
M  V30 46 H 0.788806 3.125194 2.980847 0
M  V30 47 H -1.205816 3.364621 1.814127 0
M  V30 END ATOM
M  V30 BEGIN BOND
M  V30 1 1 1 2
M  V30 2 1 2 3
M  V30 3 1 3 4
M  V30 4 1 3 5
M  V30 5 1 5 6
M  V30 6 1 6 7
M  V30 7 1 7 8
M  V30 8 1 8 9
M  V30 9 1 9 10
M  V30 10 1 10 11
M  V30 11 1 9 12
M  V30 12 1 12 13
M  V30 13 1 12 14
M  V30 14 1 14 15
M  V30 15 1 14 16
M  V30 16 1 16 17
M  V30 17 1 5 18
M  V30 18 1 18 19
M  V30 19 1 18 20
M  V30 20 1 20 21
M  V30 21 1 20 22
M  V30 22 1 22 23
M  V30 23 1 16 7
M  V30 24 1 1 24
M  V30 25 1 2 25
M  V30 26 1 2 26
M  V30 27 1 3 27 CFG=1
M  V30 28 1 4 28
M  V30 29 1 5 29 CFG=3
M  V30 30 1 7 30 CFG=1
M  V30 31 1 9 31 CFG=1
M  V30 32 1 10 32
M  V30 33 1 10 33
M  V30 34 1 11 34
M  V30 35 1 12 35 CFG=3
M  V30 36 1 13 36
M  V30 37 1 14 37 CFG=3
M  V30 38 1 15 38
M  V30 39 1 16 39 CFG=1
M  V30 40 1 17 40
M  V30 41 1 18 41 CFG=1
M  V30 42 1 19 42
M  V30 43 1 20 43 CFG=1
M  V30 44 1 21 44
M  V30 45 1 22 45
M  V30 46 1 22 46
M  V30 47 1 23 47
M  V30 END BOND
M  V30 END CTAB
M  END
>  <Dataset>  (492) 
OralDrugs

>  <Ligand_Instance>  (492) 
nan

>  <PDB_ID>  (492) 
nan

>  <Standardized_SMILES>  (492) 
OC[C@@H](O)[C@@H](O[C@@H]1O[C@H](CO)[C@H](O)[C@H](O)[C@H]1O)[C@H](O)[C@@H](O)CO

>  <Name>  (492) 
Lactitol

>  <Pocket>  (492) 
nan

>  <ATP_Site>  (492) 
nan

>  <Peripheral>  (492) 
nan

>  <Num_H_Atoms_ProtBoundConf>  (492) 
nan

>  <Num_Resolved_Atoms>  (492) 
nan

>  <Num_Not_Resolved_Atoms>  (492) 
nan

$$$$
CHEMBL296306
     RDKit          3D

  0  0  0  0  0  0  0  0  0  0999 V3000
M  V30 BEGIN CTAB
M  V30 COUNTS 45 46 0 0 0
M  V30 BEGIN ATOM
M  V30 1 O -3.259358 -0.455241 -2.521805 0
M  V30 2 C -3.715398 -0.917597 -1.309581 0
M  V30 3 C -2.594574 -1.574516 -0.568724 0 CFG=1
M  V30 4 O -1.577022 -0.666039 -0.354109 0
M  V30 5 C -0.434935 -1.217746 0.191200 0 CFG=1
M  V30 6 O 0.094262 -0.474141 1.207041 0
M  V30 7 C 1.334985 0.056699 1.019693 0 CFG=2
M  V30 8 C 2.370083 -0.249077 2.029646 0 CFG=1
M  V30 9 C 3.174241 -1.448138 1.578934 0
M  V30 10 O 4.186995 -1.694793 2.520507 0
M  V30 11 O 3.243839 0.843196 2.113040 0
M  V30 12 C 2.831080 1.782779 1.208737 0 CFG=2
M  V30 13 O 3.446768 1.528332 -0.030945 0
M  V30 14 C 3.184210 3.194101 1.601516 0
M  V30 15 O 2.611842 3.537583 2.802726 0
M  V30 16 C 1.335538 1.591100 1.052188 0 CFG=1
M  V30 17 O 0.820040 2.143787 -0.092504 0
M  V30 18 C -0.606089 -2.650493 0.622320 0 CFG=2
M  V30 19 O -0.278549 -3.518614 -0.444814 0
M  V30 20 C -1.903155 -2.980502 1.264951 0 CFG=1
M  V30 21 O -1.835171 -3.051168 2.653404 0
M  V30 22 C -3.020937 -2.072472 0.797136 0 CFG=1
M  V30 23 O -3.137140 -1.025017 1.713127 0
M  V30 24 H -3.244070 -1.162066 -3.207481 0
M  V30 25 H -4.507487 -1.677753 -1.526809 0
M  V30 26 H -4.226602 -0.130205 -0.725906 0
M  V30 27 H -2.200882 -2.402041 -1.168050 0
M  V30 28 H 0.314713 -1.233916 -0.635756 0
M  V30 29 H 1.733774 -0.212656 0.027577 0
M  V30 30 H 2.009567 -0.406962 3.051657 0
M  V30 31 H 2.530852 -2.342326 1.494150 0
M  V30 32 H 3.679136 -1.235737 0.622687 0
M  V30 33 H 5.082066 -1.697218 2.112761 0
M  V30 34 H 3.168216 2.213613 -0.704855 0
M  V30 35 H 2.994052 3.906934 0.774393 0
M  V30 36 H 4.309036 3.192440 1.703160 0
M  V30 37 H 2.796171 2.834091 3.445861 0
M  V30 38 H 0.859856 1.960964 1.983938 0
M  V30 39 H -0.064501 2.558295 0.110146 0
M  V30 40 H 0.188352 -2.852239 1.381588 0
M  V30 41 H 0.171545 -4.348556 -0.094383 0
M  V30 42 H -2.190214 -4.018639 0.926234 0
M  V30 43 H -2.040644 -2.166505 3.084543 0
M  V30 44 H -3.980196 -2.625825 0.722323 0
M  V30 45 H -2.825462 -0.208725 1.288684 0
M  V30 END ATOM
M  V30 BEGIN BOND
M  V30 1 1 1 2
M  V30 2 1 2 3
M  V30 3 1 3 4
M  V30 4 1 4 5
M  V30 5 1 5 6
M  V30 6 1 6 7
M  V30 7 1 7 8
M  V30 8 1 8 9
M  V30 9 1 9 10
M  V30 10 1 8 11
M  V30 11 1 11 12
M  V30 12 1 12 13 CFG=3
M  V30 13 1 12 14
M  V30 14 1 14 15
M  V30 15 1 12 16
M  V30 16 1 16 17
M  V30 17 1 5 18
M  V30 18 1 18 19
M  V30 19 1 18 20
M  V30 20 1 20 21
M  V30 21 1 20 22
M  V30 22 1 22 23
M  V30 23 1 22 3
M  V30 24 1 16 7
M  V30 25 1 1 24
M  V30 26 1 2 25
M  V30 27 1 2 26
M  V30 28 1 3 27 CFG=3
M  V30 29 1 5 28 CFG=3
M  V30 30 1 7 29 CFG=3
M  V30 31 1 8 30 CFG=1
M  V30 32 1 9 31
M  V30 33 1 9 32
M  V30 34 1 10 33
M  V30 35 1 13 34
M  V30 36 1 14 35
M  V30 37 1 14 36
M  V30 38 1 15 37
M  V30 39 1 16 38 CFG=1
M  V30 40 1 17 39
M  V30 41 1 18 40 CFG=1
M  V30 42 1 19 41
M  V30 43 1 20 42 CFG=3
M  V30 44 1 21 43
M  V30 45 1 22 44 CFG=3
M  V30 46 1 23 45
M  V30 END BOND
M  V30 END CTAB
M  END
>  <Dataset>  (493) 
OralDrugs

>  <Ligand_Instance>  (493) 
nan

>  <PDB_ID>  (493) 
nan

>  <Standardized_SMILES>  (493) 
OC[C@H]1O[C@@H](O[C@@H]2[C@@H](CO)O[C@](O)(CO)[C@H]2O)[C@H](O)[C@@H](O)[C@H]1O

>  <Name>  (493) 
Lactulose

>  <Pocket>  (493) 
nan

>  <ATP_Site>  (493) 
nan

>  <Peripheral>  (493) 
nan

>  <Num_H_Atoms_ProtBoundConf>  (493) 
nan

>  <Num_Resolved_Atoms>  (493) 
nan

>  <Num_Not_Resolved_Atoms>  (493) 
nan

$$$$
CHEMBL741
     RDKit          3D

  0  0  0  0  0  0  0  0  0  0999 V3000
M  V30 BEGIN CTAB
M  V30 COUNTS 23 24 0 0 0
M  V30 BEGIN ATOM
M  V30 1 N 1.362076 -2.431866 4.640075 0
M  V30 2 C 1.155617 -1.765278 3.375529 0
M  V30 3 N 1.765672 -2.225051 2.245559 0
M  V30 4 N 1.561167 -1.564761 1.078567 0
M  V30 5 C 0.749899 -0.463111 1.082400 0
M  V30 6 C 0.546024 0.233059 -0.180977 0
M  V30 7 C -0.790104 0.206763 -0.588135 0
M  V30 8 C -1.295935 0.766678 -1.741109 0
M  V30 9 C -0.368892 1.417056 -2.572133 0
M  V30 10 C 0.976064 1.462910 -2.196894 0
M  V30 11 Cl 2.249993 2.241770 -3.116813 0
M  V30 12 C 1.417391 0.884035 -1.028079 0
M  V30 13 Cl 3.064876 0.865377 -0.416657 0
M  V30 14 C 0.127582 0.012737 2.211863 0
M  V30 15 N -0.704648 1.162685 2.214581 0
M  V30 16 N 0.345222 -0.664942 3.381607 0
M  V30 17 H 1.647199 -1.833193 5.471718 0
M  V30 18 H 1.265547 -3.449979 4.834110 0
M  V30 19 H -1.605948 -0.273104 -0.026846 0
M  V30 20 H -2.315923 0.756627 -2.076574 0
M  V30 21 H -0.583929 1.902794 -3.510806 0
M  V30 22 H -0.950666 1.597902 3.141079 0
M  V30 23 H -1.103638 1.637734 1.387048 0
M  V30 END ATOM
M  V30 BEGIN BOND
M  V30 1 1 1 2
M  V30 2 2 2 3
M  V30 3 1 3 4
M  V30 4 2 4 5
M  V30 5 1 5 6
M  V30 6 2 6 7
M  V30 7 1 7 8
M  V30 8 2 8 9
M  V30 9 1 9 10
M  V30 10 1 10 11
M  V30 11 2 10 12
M  V30 12 1 12 13
M  V30 13 1 5 14
M  V30 14 1 14 15
M  V30 15 2 14 16
M  V30 16 1 16 2
M  V30 17 1 12 6
M  V30 18 1 1 17
M  V30 19 1 1 18
M  V30 20 1 7 19
M  V30 21 1 8 20
M  V30 22 1 9 21
M  V30 23 1 15 22
M  V30 24 1 15 23
M  V30 END BOND
M  V30 END CTAB
M  END
>  <Dataset>  (494) 
OralDrugs

>  <Ligand_Instance>  (494) 
nan

>  <PDB_ID>  (494) 
nan

>  <Standardized_SMILES>  (494) 
Nc1nnc(-c2cccc(Cl)c2Cl)c(N)n1

>  <Name>  (494) 
Lamotrigine

>  <Pocket>  (494) 
nan

>  <ATP_Site>  (494) 
nan

>  <Peripheral>  (494) 
nan

>  <Num_H_Atoms_ProtBoundConf>  (494) 
nan

>  <Num_Resolved_Atoms>  (494) 
nan

>  <Num_Not_Resolved_Atoms>  (494) 
nan

$$$$
CHEMBL480
     RDKit          3D

  0  0  0  0  0  0  0  0  0  0999 V3000
M  V30 BEGIN CTAB
M  V30 COUNTS 39 41 0 0 0
M  V30 BEGIN ATOM
M  V30 1 C 2.135589 -0.675232 0.333191 0
M  V30 2 C 1.644115 -0.044225 -0.931225 0
M  V30 3 C 2.316038 -0.010080 -2.177550 0
M  V30 4 O 3.471764 -0.644231 -2.013933 0
M  V30 5 C 4.513375 -0.947404 -2.841813 0
M  V30 6 C 4.199653 -1.896443 -3.965148 0
M  V30 7 F 5.356536 -2.116583 -4.721222 0
M  V30 8 F 3.762514 -3.119518 -3.480353 0
M  V30 9 F 3.230406 -1.400418 -4.769125 0
M  V30 10 C 1.572956 0.652283 -3.120117 0
M  V30 11 C 0.342019 1.233482 -2.976651 0
M  V30 12 N -0.210093 1.146893 -1.760128 0
M  V30 13 C 0.379279 0.533667 -0.717911 0
M  V30 14 C -0.354678 0.515876 0.559820 0
M  V30 15 S -1.115178 -1.032694 0.928995 0 CHG=1 VAL=3
M  V30 16 O -2.223423 -1.487830 -0.223034 0 CHG=-1 VAL=1
M  V30 17 C -1.905396 -0.858614 2.492583 0
M  V30 18 N -1.080105 -1.195581 3.522962 0
M  V30 19 C -1.791427 -1.022021 4.674068 0
M  V30 20 C -1.557027 -1.179087 6.041569 0
M  V30 21 C -2.545723 -0.898745 6.960674 0
M  V30 22 C -3.769084 -0.463176 6.547622 0
M  V30 23 C -4.073327 -0.283882 5.201817 0
M  V30 24 C -3.050163 -0.577920 4.318279 0
M  V30 25 N -3.084772 -0.489225 2.973404 0
M  V30 26 H 1.672320 -1.668996 0.514523 0
M  V30 27 H 3.223266 -0.932752 0.159322 0
M  V30 28 H 2.154457 -0.003159 1.190573 0
M  V30 29 H 5.430699 -1.304560 -2.281730 0
M  V30 30 H 4.926422 -0.020966 -3.379821 0
M  V30 31 H 2.070146 0.715630 -4.064656 0
M  V30 32 H -0.084697 1.710155 -3.840278 0
M  V30 33 H -1.161801 1.270638 0.528223 0
M  V30 34 H 0.323610 0.851897 1.372297 0
M  V30 35 H -0.539917 -1.533103 6.247239 0
M  V30 36 H -2.247557 -1.057299 7.981885 0
M  V30 37 H -4.516945 -0.255410 7.319247 0
M  V30 38 H -5.035086 0.058581 4.874394 0
M  V30 39 H -3.791800 -0.210756 2.268121 0
M  V30 END ATOM
M  V30 BEGIN BOND
M  V30 1 1 1 2
M  V30 2 2 2 3
M  V30 3 1 3 4
M  V30 4 1 4 5
M  V30 5 1 5 6
M  V30 6 1 6 7
M  V30 7 1 6 8
M  V30 8 1 6 9
M  V30 9 1 3 10
M  V30 10 2 10 11
M  V30 11 1 11 12
M  V30 12 2 12 13
M  V30 13 1 13 14
M  V30 14 1 14 15
M  V30 15 1 15 16
M  V30 16 1 15 17
M  V30 17 2 17 18
M  V30 18 1 18 19
M  V30 19 2 19 20
M  V30 20 1 20 21
M  V30 21 2 21 22
M  V30 22 1 22 23
M  V30 23 2 23 24
M  V30 24 1 24 25
M  V30 25 1 13 2
M  V30 26 1 25 17
M  V30 27 1 24 19
M  V30 28 1 1 26
M  V30 29 1 1 27
M  V30 30 1 1 28
M  V30 31 1 5 29
M  V30 32 1 5 30
M  V30 33 1 10 31
M  V30 34 1 11 32
M  V30 35 1 14 33
M  V30 36 1 14 34
M  V30 37 1 20 35
M  V30 38 1 21 36
M  V30 39 1 22 37
M  V30 40 1 23 38
M  V30 41 1 25 39
M  V30 END BOND
M  V30 END CTAB
M  END
>  <Dataset>  (495) 
OralDrugs

>  <Ligand_Instance>  (495) 
nan

>  <PDB_ID>  (495) 
nan

>  <Standardized_SMILES>  (495) 
Cc1c(OCC(F)(F)F)ccnc1C[S+]([O-])c1nc2ccccc2[nH]1

>  <Name>  (495) 
Lansoprazole

>  <Pocket>  (495) 
nan

>  <ATP_Site>  (495) 
nan

>  <Peripheral>  (495) 
nan

>  <Num_H_Atoms_ProtBoundConf>  (495) 
nan

>  <Num_Resolved_Atoms>  (495) 
nan

>  <Num_Not_Resolved_Atoms>  (495) 
nan

$$$$
CHEMBL554
     RDKit          3D

  0  0  0  0  0  0  0  0  0  0999 V3000
M  V30 BEGIN CTAB
M  V30 COUNTS 66 70 0 0 0
M  V30 BEGIN ATOM
M  V30 1 C 5.423672 -2.671652 5.582942 0
M  V30 2 S 5.145143 -2.789867 3.808381 0
M  V30 3 O 3.677012 -3.009199 3.594062 0
M  V30 4 O 5.921565 -3.944447 3.250618 0
M  V30 5 C 5.693801 -1.282119 3.123651 0
M  V30 6 C 5.527488 -1.194889 1.599528 0
M  V30 7 N 6.039331 0.092665 1.279470 0
M  V30 8 C 6.013062 0.500604 -0.081178 0
M  V30 9 C 4.550370 0.514253 -0.466039 0
M  V30 10 C 3.741720 -0.471693 -1.007197 0
M  V30 11 C 2.497766 0.113707 -1.144042 0
M  V30 12 C 2.569164 1.414719 -0.694205 0
M  V30 13 C 1.514613 2.430462 -0.636563 0
M  V30 14 C 1.842100 3.677546 -0.140368 0
M  V30 15 C 0.881388 4.691023 -0.046487 0
M  V30 16 C -0.401135 4.402203 -0.465536 0
M  V30 17 N -1.383880 5.319987 -0.398979 0
M  V30 18 C -2.646729 5.058374 -0.794253 0
M  V30 19 N -3.007163 3.858144 -1.282901 0
M  V30 20 C -2.037322 2.920069 -1.359817 0
M  V30 21 N -2.427615 1.654219 -1.868086 0
M  V30 22 C -2.694907 0.409900 -1.234829 0
M  V30 23 C -3.271894 -0.582859 -1.986816 0
M  V30 24 C -3.507108 -1.785489 -1.377305 0
M  V30 25 C -3.216061 -2.092468 -0.069903 0
M  V30 26 O -3.322069 -3.138816 0.778222 0
M  V30 27 C -3.849532 -4.397962 0.530261 0
M  V30 28 C -5.285726 -4.430376 0.157381 0
M  V30 29 C -6.106425 -4.382720 1.296548 0
M  V30 30 C -7.488134 -4.417413 1.256965 0
M  V30 31 C -8.120995 -4.504066 0.036558 0
M  V30 32 C -7.321295 -4.550932 -1.078092 0
M  V30 33 F -7.863926 -4.637422 -2.321862 0
M  V30 34 C -5.951514 -4.517200 -1.046620 0
M  V30 35 C -2.625826 -1.049438 0.668860 0
M  V30 36 Cl -2.114891 -1.067602 2.362169 0
M  V30 37 C -2.356689 0.209389 0.106376 0
M  V30 38 C -0.715353 3.149595 -0.960660 0
M  V30 39 C 0.234065 2.134447 -1.058213 0
M  V30 40 O 3.810183 1.587951 -0.307481 0
M  V30 41 H 5.525642 -3.670687 6.034484 0
M  V30 42 H 4.530142 -2.137722 6.011894 0
M  V30 43 H 6.292548 -2.007314 5.771255 0
M  V30 44 H 6.721098 -1.002160 3.412565 0
M  V30 45 H 4.992727 -0.479284 3.504500 0
M  V30 46 H 6.174372 -1.976621 1.114725 0
M  V30 47 H 4.474883 -1.362883 1.375299 0
M  V30 48 H 5.459025 0.787105 1.836585 0
M  V30 49 H 6.412351 1.526892 -0.139924 0
M  V30 50 H 6.571303 -0.199546 -0.731411 0
M  V30 51 H 4.101436 -1.454255 -1.237118 0
M  V30 52 H 1.629011 -0.377309 -1.537467 0
M  V30 53 H 2.828512 3.960783 0.203038 0
M  V30 54 H 1.087293 5.682777 0.333914 0
M  V30 55 H -3.340009 5.903796 -0.680972 0
M  V30 56 H -2.501084 1.774628 -2.899513 0
M  V30 57 H -3.565053 -0.523934 -3.014547 0
M  V30 58 H -3.945505 -2.638958 -1.858315 0
M  V30 59 H -3.704937 -5.088329 1.416729 0
M  V30 60 H -3.255366 -4.944052 -0.277782 0
M  V30 61 H -5.744002 -4.312839 2.323890 0
M  V30 62 H -8.122355 -4.380605 2.126891 0
M  V30 63 H -9.195758 -4.533549 -0.035472 0
M  V30 64 H -5.277518 -4.559967 -1.868010 0
M  V30 65 H -1.916981 1.055019 0.577491 0
M  V30 66 H -0.041247 1.164085 -1.450053 0
M  V30 END ATOM
M  V30 BEGIN BOND
M  V30 1 1 1 2
M  V30 2 2 2 3
M  V30 3 2 2 4
M  V30 4 1 2 5
M  V30 5 1 5 6
M  V30 6 1 6 7
M  V30 7 1 7 8
M  V30 8 1 8 9
M  V30 9 2 9 10
M  V30 10 1 10 11
M  V30 11 2 11 12
M  V30 12 1 12 13
M  V30 13 2 13 14
M  V30 14 1 14 15
M  V30 15 2 15 16
M  V30 16 1 16 17
M  V30 17 2 17 18
M  V30 18 1 18 19
M  V30 19 2 19 20
M  V30 20 1 20 21
M  V30 21 1 21 22
M  V30 22 2 22 23
M  V30 23 1 23 24
M  V30 24 2 24 25
M  V30 25 1 25 26
M  V30 26 1 26 27
M  V30 27 1 27 28
M  V30 28 2 28 29
M  V30 29 1 29 30
M  V30 30 2 30 31
M  V30 31 1 31 32
M  V30 32 1 32 33
M  V30 33 2 32 34
M  V30 34 1 25 35
M  V30 35 1 35 36
M  V30 36 2 35 37
M  V30 37 1 20 38
M  V30 38 2 38 39
M  V30 39 1 12 40
M  V30 40 1 40 9
M  V30 41 1 39 13
M  V30 42 1 38 16
M  V30 43 1 37 22
M  V30 44 1 34 28
M  V30 45 1 1 41
M  V30 46 1 1 42
M  V30 47 1 1 43
M  V30 48 1 5 44
M  V30 49 1 5 45
M  V30 50 1 6 46
M  V30 51 1 6 47
M  V30 52 1 7 48
M  V30 53 1 8 49
M  V30 54 1 8 50
M  V30 55 1 10 51
M  V30 56 1 11 52
M  V30 57 1 14 53
M  V30 58 1 15 54
M  V30 59 1 18 55
M  V30 60 1 21 56
M  V30 61 1 23 57
M  V30 62 1 24 58
M  V30 63 1 27 59
M  V30 64 1 27 60
M  V30 65 1 29 61
M  V30 66 1 30 62
M  V30 67 1 31 63
M  V30 68 1 34 64
M  V30 69 1 37 65
M  V30 70 1 39 66
M  V30 END BOND
M  V30 END CTAB
M  END
>  <Dataset>  (496) 
OralDrugs

>  <Ligand_Instance>  (496) 
nan

>  <PDB_ID>  (496) 
nan

>  <Standardized_SMILES>  (496) 
CS(=O)(=O)CCNCc1ccc(-c2ccc3ncnc(Nc4ccc(OCc5cccc(F)c5)c(Cl)c4)c3c2)o1

>  <Name>  (496) 
Lapatinib

>  <Pocket>  (496) 
nan

>  <ATP_Site>  (496) 
nan

>  <Peripheral>  (496) 
nan

>  <Num_H_Atoms_ProtBoundConf>  (496) 
nan

>  <Num_Resolved_Atoms>  (496) 
nan

>  <Num_Not_Resolved_Atoms>  (496) 
nan

$$$$
CHEMBL3889654
     RDKit          3D

  0  0  0  0  0  0  0  0  0  0999 V3000
M  V30 BEGIN CTAB
M  V30 COUNTS 53 57 0 0 0
M  V30 BEGIN ATOM
M  V30 1 O 0.011021 0.213885 -2.094052 0
M  V30 2 C 0.255712 -0.052213 -3.294762 0
M  V30 3 N -0.442897 -1.153003 -3.845608 0
M  V30 4 C -1.389178 -2.030786 -3.266022 0
M  V30 5 C -2.026956 -3.017631 -3.986880 0
M  V30 6 N -2.852781 -3.666608 -3.154904 0
M  V30 7 N -2.782078 -3.153696 -1.940624 0
M  V30 8 C -3.457728 -3.538713 -0.848122 0
M  V30 9 C -3.149168 -2.782551 0.292258 0
M  V30 10 C -2.223691 -1.729449 0.283607 0
M  V30 11 N -2.055538 -1.062923 1.559142 0
M  V30 12 C -3.289931 -0.910512 2.374553 0
M  V30 13 C -3.246360 0.560869 2.819814 0
M  V30 14 C -1.809544 0.972930 2.462757 0
M  V30 15 C -1.210289 -0.444514 2.489235 0 CFG=2
M  V30 16 C 0.211534 -0.470552 2.433585 0
M  V30 17 C 1.085372 -0.543095 1.371538 0
M  V30 18 C 2.461832 -0.565569 1.392712 0
M  V30 19 F 3.175147 -0.639829 0.248393 0
M  V30 20 C 3.064784 -0.508865 2.630137 0
M  V30 21 C 2.298807 -0.434460 3.759972 0
M  V30 22 C 0.927693 -0.417040 3.646707 0
M  V30 23 F 0.227095 -0.341342 4.819882 0
M  V30 24 N -1.626698 -1.458675 -0.880225 0
M  V30 25 C -1.891028 -2.152452 -1.990934 0
M  V30 26 N 1.186117 0.731844 -4.019622 0
M  V30 27 C 1.715217 0.728641 -5.392247 0
M  V30 28 C 1.385946 2.172364 -5.792646 0
M  V30 29 C 1.472460 2.950472 -4.472959 0 CFG=2
M  V30 30 O 2.399802 3.951994 -4.635222 0
M  V30 31 C 1.922587 1.865161 -3.496935 0
M  V30 32 H -0.169430 -1.294123 -4.862739 0
M  V30 33 H -1.951615 -3.306789 -5.040772 0
M  V30 34 H -4.175955 -4.342960 -0.802469 0
M  V30 35 H -3.702834 -3.095799 1.194005 0
M  V30 36 H -3.288025 -1.580368 3.236908 0
M  V30 37 H -4.207017 -1.011196 1.811423 0
M  V30 38 H -3.964416 1.185818 2.270894 0
M  V30 39 H -3.315768 0.610095 3.909662 0
M  V30 40 H -1.749050 1.305794 1.425818 0
M  V30 41 H -1.357226 1.621969 3.203334 0
M  V30 42 H -1.507817 -0.805767 3.530289 0
M  V30 43 H 0.632836 -0.587380 0.409132 0
M  V30 44 H 4.132548 -0.523580 2.697385 0
M  V30 45 H 2.769052 -0.389894 4.731176 0
M  V30 46 H 1.218194 -0.012576 -6.018694 0
M  V30 47 H 2.810628 0.629612 -5.313481 0
M  V30 48 H 2.160531 2.503042 -6.498003 0
M  V30 49 H 0.367581 2.173188 -6.189535 0
M  V30 50 H 0.454796 3.292696 -4.230851 0
M  V30 51 H 2.115498 4.715121 -4.078655 0
M  V30 52 H 1.697610 2.099240 -2.450947 0
M  V30 53 H 3.025394 1.735634 -3.675999 0
M  V30 END ATOM
M  V30 BEGIN BOND
M  V30 1 2 1 2
M  V30 2 1 2 3
M  V30 3 1 3 4
M  V30 4 1 4 5
M  V30 5 2 5 6
M  V30 6 1 6 7
M  V30 7 1 7 8
M  V30 8 2 8 9
M  V30 9 1 9 10
M  V30 10 1 10 11
M  V30 11 1 11 12
M  V30 12 1 12 13
M  V30 13 1 13 14
M  V30 14 1 14 15
M  V30 15 1 15 16
M  V30 16 2 16 17
M  V30 17 1 17 18
M  V30 18 1 18 19
M  V30 19 2 18 20
M  V30 20 1 20 21
M  V30 21 2 21 22
M  V30 22 1 22 23
M  V30 23 2 10 24
M  V30 24 1 24 25
M  V30 25 1 2 26
M  V30 26 1 26 27
M  V30 27 1 27 28
M  V30 28 1 28 29
M  V30 29 1 29 30
M  V30 30 1 29 31
M  V30 31 2 25 4
M  V30 32 1 31 26
M  V30 33 1 25 7
M  V30 34 1 15 11
M  V30 35 1 22 16
M  V30 36 1 3 32
M  V30 37 1 5 33
M  V30 38 1 8 34
M  V30 39 1 9 35
M  V30 40 1 12 36
M  V30 41 1 12 37
M  V30 42 1 13 38
M  V30 43 1 13 39
M  V30 44 1 14 40
M  V30 45 1 14 41
M  V30 46 1 15 42 CFG=1
M  V30 47 1 17 43
M  V30 48 1 20 44
M  V30 49 1 21 45
M  V30 50 1 27 46
M  V30 51 1 27 47
M  V30 52 1 28 48
M  V30 53 1 28 49
M  V30 54 1 29 50 CFG=1
M  V30 55 1 30 51
M  V30 56 1 31 52
M  V30 57 1 31 53
M  V30 END BOND
M  V30 END CTAB
M  END
>  <Dataset>  (497) 
OralDrugs

>  <Ligand_Instance>  (497) 
nan

>  <PDB_ID>  (497) 
nan

>  <Standardized_SMILES>  (497) 
O=C(Nc1cnn2ccc(N3CCC[C@@H]3c3cc(F)ccc3F)nc12)N1CC[C@H](O)C1

>  <Name>  (497) 
Larotrectinib

>  <Pocket>  (497) 
nan

>  <ATP_Site>  (497) 
nan

>  <Peripheral>  (497) 
nan

>  <Num_H_Atoms_ProtBoundConf>  (497) 
nan

>  <Num_Resolved_Atoms>  (497) 
nan

>  <Num_Not_Resolved_Atoms>  (497) 
nan

$$$$
CHEMBL3039520
     RDKit          3D

  0  0  0  0  0  0  0  0  0  0999 V3000
M  V30 BEGIN CTAB
M  V30 COUNTS 45 47 0 0 0
M  V30 BEGIN ATOM
M  V30 1 C 0.602457 -5.533386 0.140005 0
M  V30 2 N 0.745211 -4.195479 -0.418972 0
M  V30 3 C -0.536716 -3.509622 -0.300992 0
M  V30 4 C -0.263320 -2.052330 -0.569727 0
M  V30 5 C 0.785703 -1.845864 -1.625887 0
M  V30 6 C 2.125872 -1.546138 -1.104143 0
M  V30 7 O 3.129179 -2.282991 -1.345964 0
M  V30 8 C 2.333319 -0.360940 -0.274149 0
M  V30 9 C 3.575524 -0.042461 0.236070 0
M  V30 10 C 3.836706 1.060115 1.024706 0
M  V30 11 C 2.729930 1.869855 1.289555 0
M  V30 12 C 1.479587 1.571593 0.790669 0
M  V30 13 N 0.410099 2.463450 1.118589 0
M  V30 14 C -0.212482 2.040253 2.324020 0
M  V30 15 O 0.380755 0.984755 2.745832 0
M  V30 16 C -1.329978 2.662508 3.000028 0
M  V30 17 C -2.059657 3.782939 2.672792 0
M  V30 18 F -1.675253 4.392530 1.553712 0
M  V30 19 C -3.107492 4.245486 3.436843 0
M  V30 20 C -3.491412 3.610737 4.582432 0
M  V30 21 F -4.530172 4.119983 5.285305 0
M  V30 22 C -2.775003 2.486517 4.929726 0
M  V30 23 C -1.723929 2.010361 4.176420 0
M  V30 24 F -1.090955 0.881819 4.628843 0
M  V30 25 N 1.315032 0.464592 0.022510 0
M  V30 26 C 0.904633 -3.018327 -2.568326 0
M  V30 27 C 0.947881 -4.339833 -1.867173 0
M  V30 28 H 1.622833 -5.961920 0.209612 0
M  V30 29 H 0.220271 -5.412259 1.177063 0
M  V30 30 H -0.047449 -6.170748 -0.478046 0
M  V30 31 H -0.949455 -3.703640 0.688724 0
M  V30 32 H -1.214405 -3.864152 -1.124896 0
M  V30 33 H -1.245175 -1.614918 -0.912118 0
M  V30 34 H -0.035945 -1.567369 0.395039 0
M  V30 35 H 0.475105 -0.969277 -2.238327 0
M  V30 36 H 4.433265 -0.689016 0.018310 0
M  V30 37 H 4.835305 1.255194 1.394758 0
M  V30 38 H 2.873182 2.750909 1.903896 0
M  V30 39 H 0.055724 3.297098 0.647895 0
M  V30 40 H -3.605420 5.138570 3.075238 0
M  V30 41 H -3.056785 1.963376 5.832146 0
M  V30 42 H 0.136814 -2.971824 -3.366492 0
M  V30 43 H 1.893396 -2.889670 -3.096008 0
M  V30 44 H 1.854634 -4.944253 -2.074217 0
M  V30 45 H 0.077418 -4.939228 -2.215156 0
M  V30 END ATOM
M  V30 BEGIN BOND
M  V30 1 1 1 2
M  V30 2 1 2 3
M  V30 3 1 3 4
M  V30 4 1 4 5
M  V30 5 1 5 6
M  V30 6 2 6 7
M  V30 7 1 6 8
M  V30 8 2 8 9
M  V30 9 1 9 10
M  V30 10 2 10 11
M  V30 11 1 11 12
M  V30 12 1 12 13
M  V30 13 1 13 14
M  V30 14 2 14 15
M  V30 15 1 14 16
M  V30 16 2 16 17
M  V30 17 1 17 18
M  V30 18 1 17 19
M  V30 19 2 19 20
M  V30 20 1 20 21
M  V30 21 1 20 22
M  V30 22 2 22 23
M  V30 23 1 23 24
M  V30 24 2 12 25
M  V30 25 1 5 26
M  V30 26 1 26 27
M  V30 27 1 27 2
M  V30 28 1 25 8
M  V30 29 1 23 16
M  V30 30 1 1 28
M  V30 31 1 1 29
M  V30 32 1 1 30
M  V30 33 1 3 31
M  V30 34 1 3 32
M  V30 35 1 4 33
M  V30 36 1 4 34
M  V30 37 1 5 35
M  V30 38 1 9 36
M  V30 39 1 10 37
M  V30 40 1 11 38
M  V30 41 1 13 39
M  V30 42 1 19 40
M  V30 43 1 22 41
M  V30 44 1 26 42
M  V30 45 1 26 43
M  V30 46 1 27 44
M  V30 47 1 27 45
M  V30 END BOND
M  V30 END CTAB
M  END
>  <Dataset>  (498) 
OralDrugs

>  <Ligand_Instance>  (498) 
nan

>  <PDB_ID>  (498) 
nan

>  <Standardized_SMILES>  (498) 
CN1CCC(C(=O)c2cccc(NC(=O)c3c(F)cc(F)cc3F)n2)CC1

>  <Name>  (498) 
Lasmiditan

>  <Pocket>  (498) 
nan

>  <ATP_Site>  (498) 
nan

>  <Peripheral>  (498) 
nan

>  <Num_H_Atoms_ProtBoundConf>  (498) 
nan

>  <Num_Resolved_Atoms>  (498) 
nan

>  <Num_Not_Resolved_Atoms>  (498) 
nan

$$$$
CHEMBL328190
     RDKit          3D

  0  0  0  0  0  0  0  0  0  0999 V3000
M  V30 BEGIN CTAB
M  V30 COUNTS 62 66 0 0 0
M  V30 BEGIN ATOM
M  V30 1 O 2.383460 -4.188522 5.351555 0
M  V30 2 C 2.207789 -3.102852 4.506103 0
M  V30 3 C 2.007993 -3.360542 3.147722 0
M  V30 4 C 1.822163 -2.344737 2.218593 0
M  V30 5 C 1.834496 -1.018307 2.651656 0
M  V30 6 C 2.032569 -0.781585 3.993265 0
M  V30 7 C 2.217537 -1.785689 4.919981 0
M  V30 8 C 2.049328 0.621594 4.468622 0
M  V30 9 C 1.389738 1.585150 3.492890 0
M  V30 10 C 1.958109 1.346368 2.139709 0 CFG=2
M  V30 11 C 1.733614 2.472286 1.201676 0
M  V30 12 C 0.466331 2.863061 0.768032 0
M  V30 13 C 0.234819 3.905288 -0.103750 0
M  V30 14 C 1.286526 4.618096 -0.590437 0
M  V30 15 C 2.572732 4.301658 -0.215702 0
M  V30 16 C 2.736449 3.248287 0.659043 0
M  V30 17 C 1.629587 0.022743 1.611839 0 CFG=2
M  V30 18 C 0.304534 -0.199190 1.022341 0
M  V30 19 C -0.881603 -0.456230 1.690683 0
M  V30 20 C -2.077945 -0.630419 0.979111 0
M  V30 21 C -2.123147 -0.553177 -0.422472 0
M  V30 22 O -3.428017 -0.765358 -0.817605 0
M  V30 23 C -3.964021 -0.795945 -2.086878 0
M  V30 24 C -3.515575 -1.843854 -3.035625 0
M  V30 25 N -3.767831 -3.197114 -2.708622 0
M  V30 26 C -3.240430 -4.085972 -3.755415 0
M  V30 27 C -1.847027 -4.472145 -3.245389 0
M  V30 28 C -1.807458 -4.007208 -1.807648 0
M  V30 29 C -3.278573 -3.725330 -1.489741 0
M  V30 30 C -0.943776 -0.297876 -1.084572 0
M  V30 31 C 0.208068 -0.132839 -0.352520 0
M  V30 32 H 3.241750 -4.738880 5.285333 0
M  V30 33 H 1.994640 -4.394326 2.786966 0
M  V30 34 H 1.672940 -2.621425 1.181331 0
M  V30 35 H 2.370790 -1.571225 5.967027 0
M  V30 36 H 3.133213 0.912303 4.551958 0
M  V30 37 H 1.611279 0.720932 5.491715 0
M  V30 38 H 1.595754 2.628405 3.860384 0
M  V30 39 H 0.312745 1.383439 3.509308 0
M  V30 40 H 3.085580 1.349467 2.293077 0
M  V30 41 H -0.404885 2.334114 1.122327 0
M  V30 42 H -0.768856 4.173925 -0.413794 0
M  V30 43 H 1.111067 5.435442 -1.273724 0
M  V30 44 H 3.415109 4.862041 -0.596967 0
M  V30 45 H 3.762610 3.029023 0.931151 0
M  V30 46 H 2.408079 -0.248458 0.828354 0
M  V30 47 H -0.821280 -0.519745 2.760954 0
M  V30 48 H -2.910025 -0.823577 1.670745 0
M  V30 49 H -3.761149 0.196535 -2.610129 0
M  V30 50 H -5.077706 -0.910057 -1.967473 0
M  V30 51 H -2.429196 -1.768956 -3.294538 0
M  V30 52 H -4.004841 -1.664713 -4.053204 0
M  V30 53 H -3.188309 -3.499508 -4.696770 0
M  V30 54 H -3.852331 -4.984325 -3.869546 0
M  V30 55 H -1.081810 -3.911924 -3.833708 0
M  V30 56 H -1.673953 -5.551864 -3.369931 0
M  V30 57 H -1.428291 -4.809668 -1.114331 0
M  V30 58 H -1.184043 -3.121511 -1.639295 0
M  V30 59 H -3.792655 -4.686710 -1.223602 0
M  V30 60 H -3.341823 -3.071932 -0.616450 0
M  V30 61 H -1.078540 -0.251952 -2.134792 0
M  V30 62 H 1.082512 0.063250 -0.955116 0
M  V30 END ATOM
M  V30 BEGIN BOND
M  V30 1 1 1 2
M  V30 2 2 2 3
M  V30 3 1 3 4
M  V30 4 2 4 5
M  V30 5 1 5 6
M  V30 6 2 6 7
M  V30 7 1 6 8
M  V30 8 1 8 9
M  V30 9 1 9 10
M  V30 10 1 10 11
M  V30 11 2 11 12
M  V30 12 1 12 13
M  V30 13 2 13 14
M  V30 14 1 14 15
M  V30 15 2 15 16
M  V30 16 1 10 17
M  V30 17 1 17 18
M  V30 18 2 18 19
M  V30 19 1 19 20
M  V30 20 2 20 21
M  V30 21 1 21 22
M  V30 22 1 22 23
M  V30 23 1 23 24
M  V30 24 1 24 25
M  V30 25 1 25 26
M  V30 26 1 26 27
M  V30 27 1 27 28
M  V30 28 1 28 29
M  V30 29 1 21 30
M  V30 30 2 30 31
M  V30 31 1 7 2
M  V30 32 1 16 11
M  V30 33 1 31 18
M  V30 34 1 17 5
M  V30 35 1 29 25
M  V30 36 1 1 32
M  V30 37 1 3 33
M  V30 38 1 4 34
M  V30 39 1 7 35
M  V30 40 1 8 36
M  V30 41 1 8 37
M  V30 42 1 9 38
M  V30 43 1 9 39
M  V30 44 1 10 40 CFG=1
M  V30 45 1 12 41
M  V30 46 1 13 42
M  V30 47 1 14 43
M  V30 48 1 15 44
M  V30 49 1 16 45
M  V30 50 1 17 46 CFG=3
M  V30 51 1 19 47
M  V30 52 1 20 48
M  V30 53 1 23 49
M  V30 54 1 23 50
M  V30 55 1 24 51
M  V30 56 1 24 52
M  V30 57 1 26 53
M  V30 58 1 26 54
M  V30 59 1 27 55
M  V30 60 1 27 56
M  V30 61 1 28 57
M  V30 62 1 28 58
M  V30 63 1 29 59
M  V30 64 1 29 60
M  V30 65 1 30 61
M  V30 66 1 31 62
M  V30 END BOND
M  V30 END CTAB
M  END
>  <Dataset>  (499) 
OralDrugs

>  <Ligand_Instance>  (499) 
nan

>  <PDB_ID>  (499) 
nan

>  <Standardized_SMILES>  (499) 
Oc1ccc2c(c1)CC[C@H](c1ccccc1)[C@@H]2c1ccc(OCCN2CCCC2)cc1

>  <Name>  (499) 
Lasofoxifene

>  <Pocket>  (499) 
nan

>  <ATP_Site>  (499) 
nan

>  <Peripheral>  (499) 
nan

>  <Num_H_Atoms_ProtBoundConf>  (499) 
nan

>  <Num_Resolved_Atoms>  (499) 
nan

>  <Num_Not_Resolved_Atoms>  (499) 
nan

$$$$
CHEMBL2374220
     RDKit          3D

  0  0  0  0  0  0  0  0  0  0999 V3000
M  V30 BEGIN CTAB
M  V30 COUNTS 119 128 0 0 0
M  V30 BEGIN ATOM
M  V30 1 C 5.530034 -5.002030 -0.892576 0
M  V30 2 O 5.183107 -4.815552 0.476744 0
M  V30 3 C 6.191666 -4.693611 1.425545 0
M  V30 4 O 7.422760 -4.722573 1.266115 0
M  V30 5 N 5.784814 -4.507838 2.782789 0
M  V30 6 C 6.537072 -4.342690 4.014077 0 CFG=2
M  V30 7 C 6.266387 -5.414624 4.913227 0
M  V30 8 O 6.897677 -5.259803 5.997480 0
M  V30 9 N 5.853375 -6.548693 5.605043 0
M  V30 10 C 6.294458 -6.848877 6.948994 0
M  V30 11 C 5.940961 -8.287528 7.088439 0
M  V30 12 C 6.227937 -9.043168 8.319751 0
M  V30 13 C 6.964686 -9.341203 6.999056 0
M  V30 14 C 4.613405 -8.378964 6.349826 0
M  V30 15 C 4.937637 -7.615249 5.112821 0 CFG=1
M  V30 16 C 3.869016 -7.046556 4.308888 0
M  V30 17 N 3.041278 -6.030432 4.593752 0
M  V30 18 C 2.243237 -5.676042 3.628682 0
M  V30 19 C 1.179751 -4.693197 3.322677 0
M  V30 20 C 0.883693 -3.889694 4.409483 0
M  V30 21 C 0.010880 -2.810629 4.278534 0
M  V30 22 C -0.533547 -2.596337 3.007119 0
M  V30 23 C -0.207134 -3.426412 1.960783 0
M  V30 24 C 0.651259 -4.500630 2.064862 0
M  V30 25 C -0.919249 -2.945569 0.719325 0
M  V30 26 F -0.023572 -2.720048 -0.313116 0
M  V30 27 F -1.881764 -3.867717 0.315338 0
M  V30 28 C -1.562519 -1.681780 1.181118 0
M  V30 29 C -2.283732 -0.737728 0.473164 0
M  V30 30 C -2.819388 0.362433 1.109067 0
M  V30 31 C -3.484669 1.495667 0.448266 0
M  V30 32 C -4.534495 2.284012 0.845279 0
M  V30 33 C -4.878678 3.362516 0.045746 0
M  V30 34 C -4.248284 3.709933 -1.119839 0
M  V30 35 N -4.309794 4.662898 -2.056385 0
M  V30 36 C -3.366634 4.515214 -3.001107 0
M  V30 37 C -2.927647 5.225643 -4.190550 0 CFG=2
M  V30 38 C -2.161014 6.494949 -3.858145 0 CFG=1
M  V30 39 C -0.931564 6.481829 -4.766844 0
M  V30 40 C -1.668814 6.278060 -6.114445 0
M  V30 41 C -3.096133 6.586400 -5.877292 0 CFG=2
M  V30 42 C -2.965510 7.528704 -4.638009 0
M  V30 43 N -3.878782 5.561769 -5.205047 0
M  V30 44 C -5.175477 5.025758 -5.557345 0
M  V30 45 O -5.694937 4.286063 -4.677142 0
M  V30 46 C -5.901523 5.252801 -6.799734 0 CFG=1
M  V30 47 N -5.153198 5.768281 -7.868744 0
M  V30 48 C -5.160162 6.691792 -9.003685 0
M  V30 49 O -6.331095 7.217173 -8.973541 0
M  V30 50 O -4.006185 6.768324 -9.765447 0
M  V30 51 C -4.023908 7.673530 -10.873823 0
M  V30 52 C -6.591748 3.967925 -7.305901 0
M  V30 53 C -7.587362 3.450890 -6.323085 0
M  V30 54 C -5.564155 2.975864 -7.733139 0
M  V30 55 N -2.703057 3.408730 -2.612061 0
M  V30 56 C -3.199287 2.890911 -1.483826 0
M  V30 57 C -2.781963 1.773953 -0.734502 0
M  V30 58 C -2.658693 0.559981 2.477457 0
M  V30 59 C -1.930376 -0.396223 3.169142 0
M  V30 60 C -1.382694 -1.504370 2.544780 0
M  V30 61 C 2.616191 -6.570760 2.656213 0
M  V30 62 N 3.592734 -7.420319 3.014904 0
M  V30 63 C 6.263254 -2.961271 4.562411 0
M  V30 64 C 6.980257 -2.625742 5.815405 0
M  V30 65 C 4.780442 -2.729350 4.771443 0
M  V30 66 H 4.989017 -4.179148 -1.432278 0
M  V30 67 H 5.045740 -5.953182 -1.216907 0
M  V30 68 H 6.616644 -4.966773 -1.045585 0
M  V30 69 H 4.772470 -4.467230 3.015976 0
M  V30 70 H 7.622485 -4.373311 3.722975 0
M  V30 71 H 7.398745 -6.757415 7.089994 0
M  V30 72 H 5.742900 -6.274697 7.722294 0
M  V30 73 H 5.541315 -9.817920 8.680817 0
M  V30 74 H 6.810591 -8.497796 9.106275 0
M  V30 75 H 8.017989 -8.950554 6.918704 0
M  V30 76 H 6.743359 -10.321209 6.523737 0
M  V30 77 H 3.854657 -7.889851 6.986350 0
M  V30 78 H 4.335763 -9.433781 6.154141 0
M  V30 79 H 5.533981 -8.321042 4.469090 0
M  V30 80 H 1.270240 -4.003981 5.411072 0
M  V30 81 H -0.280423 -2.130022 5.062868 0
M  V30 82 H 0.930907 -5.176327 1.278273 0
M  V30 83 H -2.458215 -0.819598 -0.602683 0
M  V30 84 H -4.999298 1.975866 1.762374 0
M  V30 85 H -5.706116 3.976187 0.363004 0
M  V30 86 H -4.990627 5.425142 -2.061432 0
M  V30 87 H -2.169604 4.571280 -4.755014 0
M  V30 88 H -1.988882 6.703653 -2.829155 0
M  V30 89 H -0.365208 7.405597 -4.749802 0
M  V30 90 H -0.332379 5.555447 -4.588398 0
M  V30 91 H -1.267144 7.065725 -6.789698 0
M  V30 92 H -1.437845 5.286927 -6.537966 0
M  V30 93 H -3.606360 7.129800 -6.676279 0
M  V30 94 H -2.382625 8.427203 -4.879788 0
M  V30 95 H -3.940489 7.724220 -4.209746 0
M  V30 96 H -6.770124 5.959393 -6.575688 0
M  V30 97 H -4.257794 5.210130 -7.766250 0
M  V30 98 H -3.109660 8.266480 -10.955141 0
M  V30 99 H -4.854846 8.426819 -10.722848 0
M  V30 100 H -4.236223 7.142399 -11.815119 0
M  V30 101 H -7.115876 4.303244 -8.246857 0
M  V30 102 H -7.236317 2.545443 -5.815878 0
M  V30 103 H -8.547032 3.193745 -6.861944 0
M  V30 104 H -7.902528 4.259430 -5.599227 0
M  V30 105 H -6.022737 1.967862 -7.849254 0
M  V30 106 H -5.153297 3.302522 -8.727024 0
M  V30 107 H -4.697076 2.969436 -7.056175 0
M  V30 108 H -1.943780 1.226776 -1.149866 0
M  V30 109 H -3.061190 1.411558 3.039766 0
M  V30 110 H -1.752032 -0.310152 4.248516 0
M  V30 111 H 2.230727 -6.691527 1.621323 0
M  V30 112 H 4.071935 -8.191039 2.499543 0
M  V30 113 H 6.576465 -2.223293 3.765143 0
M  V30 114 H 6.499839 -3.078618 6.678511 0
M  V30 115 H 8.081097 -2.789873 5.744614 0
M  V30 116 H 6.879839 -1.508621 5.979785 0
M  V30 117 H 4.344627 -2.427782 3.803396 0
M  V30 118 H 4.701713 -1.845279 5.451639 0
M  V30 119 H 4.278334 -3.546899 5.291071 0
M  V30 END ATOM
M  V30 BEGIN BOND
M  V30 1 1 1 2
M  V30 2 1 2 3
M  V30 3 2 3 4
M  V30 4 1 3 5
M  V30 5 1 5 6
M  V30 6 1 6 7
M  V30 7 2 7 8
M  V30 8 1 7 9
M  V30 9 1 9 10
M  V30 10 1 10 11
M  V30 11 1 11 12
M  V30 12 1 12 13
M  V30 13 1 11 14
M  V30 14 1 14 15
M  V30 15 1 15 16
M  V30 16 2 16 17
M  V30 17 1 17 18
M  V30 18 1 18 19
M  V30 19 1 19 20
M  V30 20 2 20 21
M  V30 21 1 21 22
M  V30 22 2 22 23
M  V30 23 1 23 24
M  V30 24 1 23 25
M  V30 25 1 25 26
M  V30 26 1 25 27
M  V30 27 1 25 28
M  V30 28 2 28 29
M  V30 29 1 29 30
M  V30 30 1 30 31
M  V30 31 2 31 32
M  V30 32 1 32 33
M  V30 33 2 33 34
M  V30 34 1 34 35
M  V30 35 1 35 36
M  V30 36 1 36 37
M  V30 37 1 37 38
M  V30 38 1 38 39
M  V30 39 1 39 40
M  V30 40 1 40 41
M  V30 41 1 41 42
M  V30 42 1 41 43
M  V30 43 1 43 44
M  V30 44 2 44 45
M  V30 45 1 44 46
M  V30 46 1 46 47
M  V30 47 1 47 48
M  V30 48 2 48 49
M  V30 49 1 48 50
M  V30 50 1 50 51
M  V30 51 1 46 52
M  V30 52 1 52 53
M  V30 53 1 52 54
M  V30 54 2 36 55
M  V30 55 1 55 56
M  V30 56 2 56 57
M  V30 57 2 30 58
M  V30 58 1 58 59
M  V30 59 2 59 60
M  V30 60 2 18 61
M  V30 61 1 61 62
M  V30 62 1 6 63
M  V30 63 1 63 64
M  V30 64 1 63 65
M  V30 65 1 15 9
M  V30 66 1 62 16
M  V30 67 1 13 11
M  V30 68 2 24 19
M  V30 69 1 60 28
M  V30 70 1 60 22
M  V30 71 1 57 31
M  V30 72 1 56 34
M  V30 73 1 43 37
M  V30 74 1 42 38
M  V30 75 1 1 66
M  V30 76 1 1 67
M  V30 77 1 1 68
M  V30 78 1 5 69
M  V30 79 1 6 70 CFG=3
M  V30 80 1 10 71
M  V30 81 1 10 72
M  V30 82 1 12 73
M  V30 83 1 12 74
M  V30 84 1 13 75
M  V30 85 1 13 76
M  V30 86 1 14 77
M  V30 87 1 14 78
M  V30 88 1 15 79 CFG=3
M  V30 89 1 20 80
M  V30 90 1 21 81
M  V30 91 1 24 82
M  V30 92 1 29 83
M  V30 93 1 32 84
M  V30 94 1 33 85
M  V30 95 1 35 86
M  V30 96 1 37 87 CFG=3
M  V30 97 1 38 88 CFG=1
M  V30 98 1 39 89
M  V30 99 1 39 90
M  V30 100 1 40 91
M  V30 101 1 40 92
M  V30 102 1 41 93 CFG=3
M  V30 103 1 42 94
M  V30 104 1 42 95
M  V30 105 1 46 96 CFG=1
M  V30 106 1 47 97
M  V30 107 1 51 98
M  V30 108 1 51 99
M  V30 109 1 51 100
M  V30 110 1 52 101
M  V30 111 1 53 102
M  V30 112 1 53 103
M  V30 113 1 53 104
M  V30 114 1 54 105
M  V30 115 1 54 106
M  V30 116 1 54 107
M  V30 117 1 57 108
M  V30 118 1 58 109
M  V30 119 1 59 110
M  V30 120 1 61 111
M  V30 121 1 62 112
M  V30 122 1 63 113
M  V30 123 1 64 114
M  V30 124 1 64 115
M  V30 125 1 64 116
M  V30 126 1 65 117
M  V30 127 1 65 118
M  V30 128 1 65 119
M  V30 END BOND
M  V30 END CTAB
M  END
>  <Dataset>  (500) 
OralDrugs

>  <Ligand_Instance>  (500) 
nan

>  <PDB_ID>  (500) 
nan

>  <Standardized_SMILES>  (500) 
COC(=O)N[C@H](C(=O)N1CC2(CC2)C[C@H]1c1nc(-c2ccc3c(c2)C(F)(F)c2cc(-c4ccc5[nH]c([C@@H]6[C@H]7CC[C@H](C7)N6C(=O)[C@@H](NC(=O)OC)C(C)C)nc5c4)ccc2-3)c[nH]1)C(C)C

>  <Name>  (500) 
Ledipasvir

>  <Pocket>  (500) 
nan

>  <ATP_Site>  (500) 
nan

>  <Peripheral>  (500) 
nan

>  <Num_H_Atoms_ProtBoundConf>  (500) 
nan

>  <Num_Resolved_Atoms>  (500) 
nan

>  <Num_Not_Resolved_Atoms>  (500) 
nan

$$$$
CHEMBL3291398
     RDKit          3D

  0  0  0  0  0  0  0  0  0  0999 V3000
M  V30 BEGIN CTAB
M  V30 COUNTS 80 83 0 0 0
M  V30 BEGIN ATOM
M  V30 1 C -0.577304 -3.413776 3.120601 0
M  V30 2 C -0.054961 -3.499580 1.896954 0
M  V30 3 C 1.404095 -3.299242 1.680594 0 CFG=2
M  V30 4 C 2.078069 -4.134950 2.791093 0
M  V30 5 C 1.863026 -1.914791 1.945860 0
M  V30 6 C 1.176653 -0.863096 1.095008 0 CFG=1
M  V30 7 O 0.542715 0.123340 1.788065 0
M  V30 8 C -0.757483 0.477436 1.935681 0
M  V30 9 O -1.218446 -0.440049 1.203272 0
M  V30 10 C -1.071440 1.648141 2.791302 0
M  V30 11 S -2.841004 1.875054 2.856932 0
M  V30 12 C -3.639878 2.530796 1.399720 0 CFG=2
M  V30 13 C -5.145234 2.471305 1.557532 0
M  V30 14 C -5.878675 2.956254 0.362218 0
M  V30 15 C -5.464366 2.160274 -0.885354 0 CFG=1
M  V30 16 N -6.258820 2.647569 -1.983359 0
M  V30 17 C -3.996655 2.475015 -1.062116 0
M  V30 18 C -3.243700 1.890318 0.107504 0 CFG=1
M  V30 19 O -1.865407 2.183128 -0.034487 0
M  V30 20 C 2.247352 -0.368387 0.159843 0 CFG=2
M  V30 21 C 3.426681 0.215315 0.913065 0
M  V30 22 C 1.807448 0.560077 -0.909251 0 CFG=2
M  V30 23 C 1.529066 1.928334 -0.374986 0
M  V30 24 C 0.671418 0.012230 -1.717078 0
M  V30 25 C 0.720628 -1.420823 -2.035755 0
M  V30 26 C 1.811740 -2.242364 -1.457827 0 CFG=1
M  V30 27 C 2.676492 -2.676466 -2.649748 0
M  V30 28 C 3.583811 -1.469524 -2.908115 0
M  V30 29 C 3.841456 -0.960227 -1.542913 0
M  V30 30 O 4.756385 -0.193854 -1.302968 0
M  V30 31 C 2.824658 -1.551098 -0.641042 0 CFG=1
M  V30 32 C 1.267136 -3.515687 -0.856734 0 CFG=1
M  V30 33 C 1.444302 -4.710904 -1.815350 0
M  V30 34 C 1.849168 -3.955424 0.421726 0 CFG=2
M  V30 35 O 1.332754 -5.278468 0.605519 0
M  V30 36 H 0.118919 -3.189311 3.948672 0
M  V30 37 H -1.634128 -3.564000 3.274828 0
M  V30 38 H -0.712053 -3.718378 1.063330 0
M  V30 39 H 1.601200 -5.113929 2.885330 0
M  V30 40 H 3.128151 -4.291419 2.440122 0
M  V30 41 H 2.122186 -3.562974 3.744630 0
M  V30 42 H 1.674824 -1.718617 3.045620 0
M  V30 43 H 2.958434 -1.887630 1.892999 0
M  V30 44 H 0.474899 -1.446221 0.465637 0
M  V30 45 H -0.530915 2.558625 2.443558 0
M  V30 46 H -0.745736 1.400115 3.846722 0
M  V30 47 H -3.372952 3.627846 1.298916 0
M  V30 48 H -5.454145 1.397251 1.708939 0
M  V30 49 H -5.489330 3.066347 2.433346 0
M  V30 50 H -6.955716 2.860020 0.508470 0
M  V30 51 H -5.586514 3.997191 0.161627 0
M  V30 52 H -5.658127 1.087389 -0.728146 0
M  V30 53 H -6.008032 2.178701 -2.878430 0
M  V30 54 H -6.210781 3.683963 -2.048252 0
M  V30 55 H -3.602547 2.057234 -2.021825 0
M  V30 56 H -3.894091 3.566303 -1.067797 0
M  V30 57 H -3.352151 0.809801 0.057249 0
M  V30 58 H -1.729556 2.309129 -1.007880 0
M  V30 59 H 3.841612 1.096474 0.413691 0
M  V30 60 H 4.232633 -0.536079 1.029807 0
M  V30 61 H 3.081487 0.433543 1.964110 0
M  V30 62 H 2.679690 0.683506 -1.600822 0
M  V30 63 H 2.422402 2.614475 -0.535920 0
M  V30 64 H 0.700599 2.441664 -0.907569 0
M  V30 65 H 1.377499 1.966668 0.718451 0
M  V30 66 H -0.261424 0.334211 -1.218597 0
M  V30 67 H 0.679992 0.666634 -2.647841 0
M  V30 68 H 0.653000 -1.513893 -3.164595 0
M  V30 69 H -0.275950 -1.879723 -1.754057 0
M  V30 70 H 2.049685 -2.742281 -3.570561 0
M  V30 71 H 3.319666 -3.520543 -2.446814 0
M  V30 72 H 4.494671 -1.758909 -3.442724 0
M  V30 73 H 3.074941 -0.682921 -3.491107 0
M  V30 74 H 3.392721 -2.248987 -0.007704 0
M  V30 75 H 0.160771 -3.478429 -0.754002 0
M  V30 76 H 2.435315 -5.185674 -1.686954 0
M  V30 77 H 0.718530 -5.510336 -1.534094 0
M  V30 78 H 1.205449 -4.451880 -2.847411 0
M  V30 79 H 2.939452 -4.164851 0.399630 0
M  V30 80 H 1.865159 -5.944536 0.125820 0
M  V30 END ATOM
M  V30 BEGIN BOND
M  V30 1 2 1 2
M  V30 2 1 2 3
M  V30 3 1 3 4 CFG=1
M  V30 4 1 3 5
M  V30 5 1 5 6
M  V30 6 1 6 7
M  V30 7 1 7 8
M  V30 8 2 8 9
M  V30 9 1 8 10
M  V30 10 1 10 11
M  V30 11 1 11 12
M  V30 12 1 12 13
M  V30 13 1 13 14
M  V30 14 1 14 15
M  V30 15 1 15 16
M  V30 16 1 15 17
M  V30 17 1 17 18
M  V30 18 1 18 19
M  V30 19 1 6 20
M  V30 20 1 20 21 CFG=1
M  V30 21 1 20 22
M  V30 22 1 22 23
M  V30 23 1 22 24
M  V30 24 1 24 25
M  V30 25 1 26 25 CFG=3
M  V30 26 1 26 27
M  V30 27 1 27 28
M  V30 28 1 28 29
M  V30 29 2 29 30
M  V30 30 1 29 31
M  V30 31 1 26 32
M  V30 32 1 32 33
M  V30 33 1 32 34
M  V30 34 1 34 35
M  V30 35 1 34 3
M  V30 36 1 18 12
M  V30 37 1 31 20
M  V30 38 1 31 26
M  V30 39 1 1 36
M  V30 40 1 1 37
M  V30 41 1 2 38
M  V30 42 1 4 39
M  V30 43 1 4 40
M  V30 44 1 4 41
M  V30 45 1 5 42
M  V30 46 1 5 43
M  V30 47 1 6 44 CFG=3
M  V30 48 1 10 45
M  V30 49 1 10 46
M  V30 50 1 12 47 CFG=3
M  V30 51 1 13 48
M  V30 52 1 13 49
M  V30 53 1 14 50
M  V30 54 1 14 51
M  V30 55 1 15 52 CFG=1
M  V30 56 1 16 53
M  V30 57 1 16 54
M  V30 58 1 17 55
M  V30 59 1 17 56
M  V30 60 1 18 57 CFG=1
M  V30 61 1 19 58
M  V30 62 1 21 59
M  V30 63 1 21 60
M  V30 64 1 21 61
M  V30 65 1 22 62 CFG=3
M  V30 66 1 23 63
M  V30 67 1 23 64
M  V30 68 1 23 65
M  V30 69 1 24 66
M  V30 70 1 24 67
M  V30 71 1 25 68
M  V30 72 1 25 69
M  V30 73 1 27 70
M  V30 74 1 27 71
M  V30 75 1 28 72
M  V30 76 1 28 73
M  V30 77 1 31 74 CFG=1
M  V30 78 1 32 75 CFG=1
M  V30 79 1 33 76
M  V30 80 1 33 77
M  V30 81 1 33 78
M  V30 82 1 34 79 CFG=3
M  V30 83 1 35 80
M  V30 END BOND
M  V30 END CTAB
M  END
>  <Dataset>  (501) 
OralDrugs

>  <Ligand_Instance>  (501) 
nan

>  <PDB_ID>  (501) 
nan

>  <Standardized_SMILES>  (501) 
C=C[C@]1(C)C[C@@H](OC(=O)CS[C@@H]2CC[C@@H](N)C[C@H]2O)[C@]2(C)[C@H](C)CC[C@]3(CCC(=O)[C@H]32)[C@@H](C)[C@@H]1O

>  <Name>  (501) 
Lefamulin

>  <Pocket>  (501) 
nan

>  <ATP_Site>  (501) 
nan

>  <Peripheral>  (501) 
nan

>  <Num_H_Atoms_ProtBoundConf>  (501) 
nan

>  <Num_Resolved_Atoms>  (501) 
nan

>  <Num_Not_Resolved_Atoms>  (501) 
nan

$$$$
CHEMBL3545367
     RDKit          3D

  0  0  0  0  0  0  0  0  0  0999 V3000
M  V30 BEGIN CTAB
M  V30 COUNTS 50 53 0 0 0
M  V30 BEGIN ATOM
M  V30 1 C 0.385032 -2.926575 6.280691 0
M  V30 2 C 0.721781 -2.220738 5.022977 0
M  V30 3 N 0.815793 -0.865448 5.048305 0
M  V30 4 C 1.125674 -0.222312 3.888055 0
M  V30 5 C 1.339829 -0.891745 2.724441 0
M  V30 6 O 1.632743 -0.408243 1.588425 0
M  V30 7 C 1.934348 0.110676 0.425662 0
M  V30 8 C 0.992901 1.102767 -0.229213 0 CFG=1
M  V30 9 C 0.753607 2.353683 0.540744 0
M  V30 10 C 1.429379 2.573543 1.724887 0
M  V30 11 C 1.313966 3.672954 2.541330 0
M  V30 12 C 0.438398 4.663780 2.149140 0
M  V30 13 C -0.268717 4.507523 0.975421 0
M  V30 14 F -1.133916 5.462071 0.565888 0
M  V30 15 C -0.103696 3.376884 0.203708 0
M  V30 16 C 1.314532 1.340961 -1.709461 0
M  V30 17 C 0.027178 0.732402 -1.265828 0 CFG=1
M  V30 18 C -0.297817 -0.626303 -1.697588 0
M  V30 19 O 0.598456 -1.496284 -1.684877 0
M  V30 20 N -1.578456 -1.045324 -2.139449 0
M  V30 21 C -2.038963 -2.307095 -2.581564 0
M  V30 22 C -1.314569 -3.467961 -2.691681 0
M  V30 23 C -1.806229 -4.665678 -3.124860 0
M  V30 24 C -3.124254 -4.751000 -3.486300 0
M  V30 25 F -3.733497 -5.873133 -3.929768 0
M  V30 26 C -3.837231 -3.579073 -3.370493 0
M  V30 27 N -3.323308 -2.429272 -2.943973 0
M  V30 28 C 1.228624 -2.291079 2.760661 0
M  V30 29 C 1.446784 -3.125012 1.525381 0
M  V30 30 N 0.917537 -2.947403 3.921490 0
M  V30 31 H -0.231132 -3.818684 6.001880 0
M  V30 32 H -0.280497 -2.305544 6.922888 0
M  V30 33 H 1.278750 -3.249571 6.857393 0
M  V30 34 H 1.178771 0.845040 3.999511 0
M  V30 35 H 2.900171 0.728335 0.534610 0
M  V30 36 H 2.266407 -0.611202 -0.386619 0
M  V30 37 H 2.128188 1.823601 2.062397 0
M  V30 38 H 1.884556 3.762354 3.455610 0
M  V30 39 H 0.340993 5.533025 2.785974 0
M  V30 40 H -0.672081 3.293559 -0.709076 0
M  V30 41 H 1.373573 2.380760 -2.088349 0
M  V30 42 H 2.009138 0.659839 -2.230095 0
M  V30 43 H -0.862480 1.423287 -1.349872 0
M  V30 44 H -2.276986 -0.253033 -2.119913 0
M  V30 45 H -0.273844 -3.455124 -2.420046 0
M  V30 46 H -1.188064 -5.548736 -3.191446 0
M  V30 47 H -4.894720 -3.589418 -3.645707 0
M  V30 48 H 1.154707 -4.167020 1.756550 0
M  V30 49 H 0.718769 -2.805113 0.724217 0
M  V30 50 H 2.491393 -3.045356 1.177206 0
M  V30 END ATOM
M  V30 BEGIN BOND
M  V30 1 1 1 2
M  V30 2 2 2 3
M  V30 3 1 3 4
M  V30 4 2 4 5
M  V30 5 1 5 6
M  V30 6 1 6 7
M  V30 7 1 8 7 CFG=1
M  V30 8 1 8 9
M  V30 9 2 9 10
M  V30 10 1 10 11
M  V30 11 2 11 12
M  V30 12 1 12 13
M  V30 13 1 13 14
M  V30 14 2 13 15
M  V30 15 1 8 16
M  V30 16 1 16 17
M  V30 17 1 17 18
M  V30 18 2 18 19
M  V30 19 1 18 20
M  V30 20 1 20 21
M  V30 21 2 21 22
M  V30 22 1 22 23
M  V30 23 2 23 24
M  V30 24 1 24 25
M  V30 25 1 24 26
M  V30 26 2 26 27
M  V30 27 1 5 28
M  V30 28 1 28 29
M  V30 29 2 28 30
M  V30 30 1 30 2
M  V30 31 1 17 8
M  V30 32 1 27 21
M  V30 33 1 15 9
M  V30 34 1 1 31
M  V30 35 1 1 32
M  V30 36 1 1 33
M  V30 37 1 4 34
M  V30 38 1 7 35
M  V30 39 1 7 36
M  V30 40 1 10 37
M  V30 41 1 11 38
M  V30 42 1 12 39
M  V30 43 1 15 40
M  V30 44 1 16 41
M  V30 45 1 16 42
M  V30 46 1 17 43 CFG=1
M  V30 47 1 20 44
M  V30 48 1 22 45
M  V30 49 1 23 46
M  V30 50 1 26 47
M  V30 51 1 29 48
M  V30 52 1 29 49
M  V30 53 1 29 50
M  V30 END BOND
M  V30 END CTAB
M  END
>  <Dataset>  (502) 
OralDrugs

>  <Ligand_Instance>  (502) 
nan

>  <PDB_ID>  (502) 
nan

>  <Standardized_SMILES>  (502) 
Cc1ncc(OC[C@@]2(c3cccc(F)c3)C[C@H]2C(=O)Nc2ccc(F)cn2)c(C)n1

>  <Name>  (502) 
Lemborexant

>  <Pocket>  (502) 
nan

>  <ATP_Site>  (502) 
nan

>  <Peripheral>  (502) 
nan

>  <Num_H_Atoms_ProtBoundConf>  (502) 
nan

>  <Num_Resolved_Atoms>  (502) 
nan

>  <Num_Not_Resolved_Atoms>  (502) 
nan

$$$$
CHEMBL4594438
     RDKit          3D

  0  0  0  0  0  0  0  0  0  0999 V3000
M  V30 BEGIN CTAB
M  V30 COUNTS 96 102 0 0 0
M  V30 BEGIN ATOM
M  V30 1 C 5.908220 4.658845 1.180516 0
M  V30 2 C 4.724009 5.449523 0.733885 0
M  V30 3 C 5.054972 6.093281 -0.599839 0
M  V30 4 C 3.575776 4.545400 0.640417 0
M  V30 5 C 2.606843 3.809319 0.565198 0
M  V30 6 C 1.448534 2.959287 0.483371 0
M  V30 7 C 0.301350 3.655505 0.110956 0
M  V30 8 C -0.886363 2.967515 0.009976 0
M  V30 9 C -0.814269 1.620569 0.295879 0
M  V30 10 C -1.998992 0.788896 0.166109 0
M  V30 11 C -2.636558 0.466596 1.342490 0
M  V30 12 C -3.748687 -0.343444 1.377849 0
M  V30 13 C -4.214533 -0.830188 0.184401 0
M  V30 14 Cl -5.613850 -1.846800 0.148223 0
M  V30 15 C -3.602643 -0.524522 -0.982491 0
M  V30 16 C -3.790483 -0.784780 -2.321285 0
M  V30 17 N -4.836341 -1.590911 -2.894350 0
M  V30 18 S -4.786299 -1.674525 -4.633056 0
M  V30 19 C -3.256442 -2.408342 -5.137380 0
M  V30 20 O -5.955679 -2.455079 -5.176891 0
M  V30 21 O -4.828357 -0.276008 -5.203736 0
M  V30 22 N -2.840953 -0.153710 -3.018922 0
M  V30 23 N -2.000777 0.534023 -2.222653 0
M  V30 24 C -0.991249 1.194379 -2.954248 0
M  V30 25 C 0.201879 0.324104 -3.278698 0
M  V30 26 F -0.152907 -0.797000 -4.008470 0
M  V30 27 F 0.975690 1.057134 -4.242004 0
M  V30 28 F 1.059090 0.104682 -2.262797 0
M  V30 29 C -2.494395 0.282060 -1.013934 0
M  V30 30 C 0.314130 0.868635 0.680079 0
M  V30 31 C 0.449832 -0.468722 1.151593 0 CFG=2
M  V30 32 C 1.562095 -0.749327 2.166137 0
M  V30 33 C 2.920993 -0.482744 1.698439 0
M  V30 34 C 3.837175 0.534866 1.832199 0
M  V30 35 C 5.045741 0.458348 1.195007 0
M  V30 36 F 5.889199 1.487906 1.369452 0
M  V30 37 C 5.448565 -0.571507 0.408215 0
M  V30 38 C 4.552919 -1.620767 0.248332 0
M  V30 39 F 4.973371 -2.643587 -0.546395 0
M  V30 40 C 3.313626 -1.561521 0.890002 0
M  V30 41 N 0.391500 -1.556773 0.215197 0
M  V30 42 C -0.226554 -2.783843 0.726648 0
M  V30 43 O -0.664237 -2.752373 1.938918 0
M  V30 44 C -0.501639 -4.119466 0.237676 0
M  V30 45 N -1.861563 -4.536917 0.053046 0
M  V30 46 N -2.501072 -4.468241 -1.100021 0
M  V30 47 C -3.742335 -4.989342 -1.017222 0
M  V30 48 C -4.831650 -5.171920 -2.037613 0
M  V30 49 F -5.100060 -6.547533 -2.170744 0
M  V30 50 F -4.421972 -4.635338 -3.219359 0
M  V30 51 F -5.978952 -4.630727 -1.523259 0
M  V30 52 C -3.837985 -5.395739 0.300191 0
M  V30 53 C -2.664308 -5.121734 1.000680 0
M  V30 54 C -2.787598 -5.567340 2.412065 0
M  V30 55 F -2.633648 -4.520140 3.298422 0
M  V30 56 F -1.860082 -6.571516 2.702269 0
M  V30 57 C -4.149655 -6.179782 2.499887 0 CFG=2
M  V30 58 C -4.451369 -7.388306 1.718561 0
M  V30 59 C -4.828859 -6.050168 1.199680 0 CFG=2
M  V30 60 N 1.412446 1.645761 0.742315 0
M  V30 61 S 4.354345 6.780187 1.870342 0
M  V30 62 C 2.950592 7.649142 1.248366 0
M  V30 63 O 5.537299 7.703791 1.870859 0
M  V30 64 O 4.107917 6.238317 3.252832 0
M  V30 65 H 6.745728 5.391178 1.382500 0
M  V30 66 H 5.703598 4.042518 2.073870 0
M  V30 67 H 6.279180 4.054391 0.327518 0
M  V30 68 H 4.999880 7.204520 -0.573144 0
M  V30 69 H 4.304871 5.785510 -1.387626 0
M  V30 70 H 6.092818 5.859027 -0.932280 0
M  V30 71 H 0.241572 4.715512 -0.117794 0
M  V30 72 H -1.857182 3.356568 -0.265188 0
M  V30 73 H -2.278910 0.847302 2.286656 0
M  V30 74 H -4.290416 -0.628764 2.267916 0
M  V30 75 H -5.569059 -2.086331 -2.353673 0
M  V30 76 H -2.713210 -2.824958 -4.247330 0
M  V30 77 H -3.385704 -3.248239 -5.837191 0
M  V30 78 H -2.577698 -1.657468 -5.631303 0
M  V30 79 H -0.560579 2.028743 -2.363746 0
M  V30 80 H -1.329445 1.580536 -3.948018 0
M  V30 81 H -0.474554 -0.635243 1.830134 0
M  V30 82 H 1.393667 -1.783437 2.522143 0
M  V30 83 H 1.396531 -0.131036 3.098056 0
M  V30 84 H 3.464400 1.311112 2.484624 0
M  V30 85 H 6.421393 -0.543845 -0.056975 0
M  V30 86 H 2.759995 -2.476632 0.638760 0
M  V30 87 H 0.593858 -1.951650 -0.756102 0
M  V30 88 H -0.052205 -4.864364 0.969707 0
M  V30 89 H 0.106310 -4.315884 -0.697155 0
M  V30 90 H -4.751295 -6.039459 3.435851 0
M  V30 91 H -3.645083 -7.907102 1.157877 0
M  V30 92 H -5.288856 -8.069279 2.048191 0
M  V30 93 H -5.883586 -5.733228 1.181529 0
M  V30 94 H 3.226412 8.471323 0.567326 0
M  V30 95 H 2.342328 8.117536 2.068621 0
M  V30 96 H 2.247955 6.981960 0.680070 0
M  V30 END ATOM
M  V30 BEGIN BOND
M  V30 1 1 1 2
M  V30 2 1 2 3
M  V30 3 1 2 4
M  V30 4 3 4 5
M  V30 5 1 5 6
M  V30 6 2 6 7
M  V30 7 1 7 8
M  V30 8 2 8 9
M  V30 9 1 9 10
M  V30 10 2 10 11
M  V30 11 1 11 12
M  V30 12 2 12 13
M  V30 13 1 13 14
M  V30 14 1 13 15
M  V30 15 1 15 16
M  V30 16 1 16 17
M  V30 17 1 17 18
M  V30 18 1 18 19
M  V30 19 2 18 20
M  V30 20 2 18 21
M  V30 21 2 16 22
M  V30 22 1 22 23
M  V30 23 1 23 24
M  V30 24 1 24 25
M  V30 25 1 25 26
M  V30 26 1 25 27
M  V30 27 1 25 28
M  V30 28 1 23 29
M  V30 29 1 9 30
M  V30 30 1 30 31
M  V30 31 1 31 32
M  V30 32 1 32 33
M  V30 33 2 33 34
M  V30 34 1 34 35
M  V30 35 1 35 36
M  V30 36 2 35 37
M  V30 37 1 37 38
M  V30 38 1 38 39
M  V30 39 2 38 40
M  V30 40 1 31 41
M  V30 41 1 41 42
M  V30 42 2 42 43
M  V30 43 1 42 44
M  V30 44 1 44 45
M  V30 45 1 45 46
M  V30 46 2 46 47
M  V30 47 1 47 48
M  V30 48 1 48 49
M  V30 49 1 48 50
M  V30 50 1 48 51
M  V30 51 1 47 52
M  V30 52 2 52 53
M  V30 53 1 53 54
M  V30 54 1 54 55
M  V30 55 1 54 56
M  V30 56 1 54 57
M  V30 57 1 57 58
M  V30 58 1 58 59
M  V30 59 2 30 60
M  V30 60 1 2 61
M  V30 61 1 61 62
M  V30 62 2 61 63
M  V30 63 2 61 64
M  V30 64 1 60 6
M  V30 65 1 29 10
M  V30 66 1 40 33
M  V30 67 1 53 45
M  V30 68 1 59 57
M  V30 69 2 29 15
M  V30 70 1 59 52
M  V30 71 1 1 65
M  V30 72 1 1 66
M  V30 73 1 1 67
M  V30 74 1 3 68
M  V30 75 1 3 69
M  V30 76 1 3 70
M  V30 77 1 7 71
M  V30 78 1 8 72
M  V30 79 1 11 73
M  V30 80 1 12 74
M  V30 81 1 17 75
M  V30 82 1 19 76
M  V30 83 1 19 77
M  V30 84 1 19 78
M  V30 85 1 24 79
M  V30 86 1 24 80
M  V30 87 1 31 81 CFG=1
M  V30 88 1 32 82
M  V30 89 1 32 83
M  V30 90 1 34 84
M  V30 91 1 37 85
M  V30 92 1 40 86
M  V30 93 1 41 87
M  V30 94 1 44 88
M  V30 95 1 44 89
M  V30 96 1 57 90 CFG=1
M  V30 97 1 58 91
M  V30 98 1 58 92
M  V30 99 1 59 93 CFG=1
M  V30 100 1 62 94
M  V30 101 1 62 95
M  V30 102 1 62 96
M  V30 END BOND
M  V30 END CTAB
M  END
>  <Dataset>  (503) 
OralDrugs

>  <Ligand_Instance>  (503) 
nan

>  <PDB_ID>  (503) 
nan

>  <Standardized_SMILES>  (503) 
CC(C)(C#Cc1ccc(-c2ccc(Cl)c3c(NS(C)(=O)=O)nn(CC(F)(F)F)c23)c([C@H](Cc2cc(F)cc(F)c2)NC(=O)Cn2nc(C(F)(F)F)c3c2C(F)(F)[C@@H]2C[C@H]32)n1)S(C)(=O)=O

>  <Name>  (503) 
Lenacapavir

>  <Pocket>  (503) 
nan

>  <ATP_Site>  (503) 
nan

>  <Peripheral>  (503) 
nan

>  <Num_H_Atoms_ProtBoundConf>  (503) 
nan

>  <Num_Resolved_Atoms>  (503) 
nan

>  <Num_Not_Resolved_Atoms>  (503) 
nan

$$$$
CHEMBL848
     RDKit          3D

  0  0  0  0  0  0  0  0  0  0999 V3000
M  V30 BEGIN CTAB
M  V30 COUNTS 32 34 0 0 0
M  V30 BEGIN ATOM
M  V30 1 N -2.053812 -1.990400 3.149065 0
M  V30 2 C -0.935564 -2.612686 2.526865 0
M  V30 3 C -0.700102 -3.926607 2.937804 0
M  V30 4 C 0.386811 -4.584526 2.357350 0
M  V30 5 C 1.206350 -3.982181 1.416429 0
M  V30 6 C 0.909550 -2.681807 1.061460 0
M  V30 7 C -0.146420 -1.969483 1.591887 0
M  V30 8 C -0.216720 -0.598410 1.020747 0
M  V30 9 N 0.908681 -0.570164 0.094725 0
M  V30 10 C 1.260259 0.595093 -0.724366 0
M  V30 11 C 0.201259 0.945622 -1.720619 0
M  V30 12 C -0.831991 1.912251 -1.278097 0
M  V30 13 C -0.361273 2.926460 -0.307754 0
M  V30 14 O -1.055401 3.963181 -0.166371 0
M  V30 15 N 0.807267 2.786071 0.450688 0
M  V30 16 C 1.691492 1.734207 0.118229 0
M  V30 17 O 2.885361 1.766126 0.552472 0
M  V30 18 C 1.612996 -1.827328 0.099236 0
M  V30 19 O 2.626172 -2.111957 -0.592412 0
M  V30 20 H -2.036490 -1.094891 3.720551 0
M  V30 21 H -3.062791 -2.135756 3.256674 0
M  V30 22 H -1.328192 -4.418267 3.672676 0
M  V30 23 H 0.554498 -5.615098 2.693486 0
M  V30 24 H 2.046565 -4.522064 0.982047 0
M  V30 25 H -1.172534 -0.462512 0.463673 0
M  V30 26 H -0.100245 0.132796 1.840302 0
M  V30 27 H 2.160341 0.275674 -1.308319 0
M  V30 28 H 0.696890 1.349747 -2.645543 0
M  V30 29 H -0.315035 0.027026 -2.050285 0
M  V30 30 H -1.773892 1.432597 -0.880699 0
M  V30 31 H -1.195726 2.477796 -2.167276 0
M  V30 32 H 1.029583 3.435194 1.242751 0
M  V30 END ATOM
M  V30 BEGIN BOND
M  V30 1 1 1 2
M  V30 2 2 2 3
M  V30 3 1 3 4
M  V30 4 2 4 5
M  V30 5 1 5 6
M  V30 6 2 6 7
M  V30 7 1 7 8
M  V30 8 1 8 9
M  V30 9 1 9 10
M  V30 10 1 10 11
M  V30 11 1 11 12
M  V30 12 1 12 13
M  V30 13 2 13 14
M  V30 14 1 13 15
M  V30 15 1 15 16
M  V30 16 2 16 17
M  V30 17 1 9 18
M  V30 18 2 18 19
M  V30 19 1 7 2
M  V30 20 1 16 10
M  V30 21 1 18 6
M  V30 22 1 1 20
M  V30 23 1 1 21
M  V30 24 1 3 22
M  V30 25 1 4 23
M  V30 26 1 5 24
M  V30 27 1 8 25
M  V30 28 1 8 26
M  V30 29 1 10 27
M  V30 30 1 11 28
M  V30 31 1 11 29
M  V30 32 1 12 30
M  V30 33 1 12 31
M  V30 34 1 15 32
M  V30 END BOND
M  V30 END CTAB
M  END
>  <Dataset>  (504) 
OralDrugs

>  <Ligand_Instance>  (504) 
nan

>  <PDB_ID>  (504) 
nan

>  <Standardized_SMILES>  (504) 
Nc1cccc2c1CN(C1CCC(=O)NC1=O)C2=O

>  <Name>  (504) 
Lenalidomide

>  <Pocket>  (504) 
nan

>  <ATP_Site>  (504) 
nan

>  <Peripheral>  (504) 
nan

>  <Num_H_Atoms_ProtBoundConf>  (504) 
nan

>  <Num_Resolved_Atoms>  (504) 
nan

>  <Num_Not_Resolved_Atoms>  (504) 
nan

$$$$
CHEMBL3643413
     RDKit          3D

  0  0  0  0  0  0  0  0  0  0999 V3000
M  V30 BEGIN CTAB
M  V30 COUNTS 57 60 0 0 0
M  V30 BEGIN ATOM
M  V30 1 C 3.456266 -3.482752 1.944981 0
M  V30 2 C 3.975836 -3.118768 0.577537 0
M  V30 3 C 3.827126 -1.708686 0.210434 0
M  V30 4 O 4.313192 -1.622992 -0.975120 0
M  V30 5 N 3.262957 -0.624226 0.983765 0
M  V30 6 C 2.682863 -0.499520 2.305969 0
M  V30 7 C 2.811977 0.982042 2.587007 0
M  V30 8 C 2.435072 1.573855 1.224037 0 CFG=2
M  V30 9 N 1.010289 1.470055 1.015633 0
M  V30 10 C 0.544959 1.999985 -0.215431 0
M  V30 11 N 1.402506 2.548150 -1.090320 0
M  V30 12 C 0.960406 3.059668 -2.275907 0
M  V30 13 N -0.350563 3.049540 -2.644646 0
M  V30 14 C -1.262596 2.502145 -1.787447 0
M  V30 15 C -0.774306 1.996749 -0.600849 0
M  V30 16 C -1.824694 1.421998 0.268866 0
M  V30 17 N -2.649815 0.485634 -0.506221 0
M  V30 18 C -2.817580 -0.872072 -0.218508 0
M  V30 19 C -3.618812 -1.670698 -1.006388 0
M  V30 20 N -3.791241 -2.981226 -0.744576 0
M  V30 21 C -3.193649 -3.596983 0.301917 0
M  V30 22 O -3.339090 -4.941514 0.613295 0
M  V30 23 C -4.144784 -5.816624 -0.151476 0
M  V30 24 C -2.376104 -2.850274 1.131585 0
M  V30 25 C -1.692920 -3.463476 2.294226 0
M  V30 26 F -2.670589 -3.976291 3.146403 0
M  V30 27 F -0.849679 -4.471874 1.892521 0
M  V30 28 F -1.038932 -2.470946 3.003035 0
M  V30 29 C -2.218888 -1.493906 0.831747 0
M  V30 30 C -3.312112 1.088881 -1.647002 0
M  V30 31 C -2.723541 2.419238 -2.048446 0
M  V30 32 C 3.243180 0.682184 0.307634 0
M  V30 33 H 2.434118 -3.159224 2.143967 0
M  V30 34 H 3.414845 -4.616068 1.960295 0
M  V30 35 H 4.206123 -3.232051 2.703944 0
M  V30 36 H 5.079109 -3.360486 0.604193 0
M  V30 37 H 3.542546 -3.804605 -0.192637 0
M  V30 38 H 1.583173 -0.722374 2.287498 0
M  V30 39 H 3.200507 -1.106514 3.078040 0
M  V30 40 H 2.131639 1.337567 3.360094 0
M  V30 41 H 3.888369 1.193658 2.776820 0
M  V30 42 H 2.819520 2.613538 1.142572 0
M  V30 43 H 0.436190 1.026623 1.759785 0
M  V30 44 H 1.701120 3.485939 -2.934295 0
M  V30 45 H -2.539376 2.269862 0.489140 0
M  V30 46 H -1.504002 1.053396 1.229397 0
M  V30 47 H -4.148374 -1.282571 -1.873722 0
M  V30 48 H -5.132811 -5.939697 0.331978 0
M  V30 49 H -3.668950 -6.813018 -0.293115 0
M  V30 50 H -4.307094 -5.375012 -1.148578 0
M  V30 51 H -1.569431 -0.960763 1.513410 0
M  V30 52 H -3.306710 0.465695 -2.557465 0
M  V30 53 H -4.367855 1.242868 -1.331721 0
M  V30 54 H -2.841020 2.601977 -3.137177 0
M  V30 55 H -3.279002 3.208495 -1.479868 0
M  V30 56 H 2.751644 0.640603 -0.660297 0
M  V30 57 H 4.261005 1.101113 0.190580 0
M  V30 END ATOM
M  V30 BEGIN BOND
M  V30 1 1 1 2
M  V30 2 1 2 3
M  V30 3 2 3 4
M  V30 4 1 3 5
M  V30 5 1 5 6
M  V30 6 1 6 7
M  V30 7 1 7 8
M  V30 8 1 8 9
M  V30 9 1 9 10
M  V30 10 2 10 11
M  V30 11 1 11 12
M  V30 12 2 12 13
M  V30 13 1 13 14
M  V30 14 2 14 15
M  V30 15 1 15 16
M  V30 16 1 16 17
M  V30 17 1 17 18
M  V30 18 2 18 19
M  V30 19 1 19 20
M  V30 20 2 20 21
M  V30 21 1 21 22
M  V30 22 1 22 23
M  V30 23 1 21 24
M  V30 24 1 24 25
M  V30 25 1 25 26
M  V30 26 1 25 27
M  V30 27 1 25 28
M  V30 28 2 24 29
M  V30 29 1 17 30
M  V30 30 1 30 31
M  V30 31 1 8 32
M  V30 32 1 32 5
M  V30 33 1 15 10
M  V30 34 1 29 18
M  V30 35 1 31 14
M  V30 36 1 1 33
M  V30 37 1 1 34
M  V30 38 1 1 35
M  V30 39 1 2 36
M  V30 40 1 2 37
M  V30 41 1 6 38
M  V30 42 1 6 39
M  V30 43 1 7 40
M  V30 44 1 7 41
M  V30 45 1 8 42 CFG=1
M  V30 46 1 9 43
M  V30 47 1 12 44
M  V30 48 1 16 45
M  V30 49 1 16 46
M  V30 50 1 19 47
M  V30 51 1 23 48
M  V30 52 1 23 49
M  V30 53 1 23 50
M  V30 54 1 29 51
M  V30 55 1 30 52
M  V30 56 1 30 53
M  V30 57 1 31 54
M  V30 58 1 31 55
M  V30 59 1 32 56
M  V30 60 1 32 57
M  V30 END BOND
M  V30 END CTAB
M  END
>  <Dataset>  (505) 
OralDrugs

>  <Ligand_Instance>  (505) 
nan

>  <PDB_ID>  (505) 
nan

>  <Standardized_SMILES>  (505) 
CCC(=O)N1CC[C@H](Nc2ncnc3c2CN(c2cnc(OC)c(C(F)(F)F)c2)CC3)C1

>  <Name>  (505) 
Leniolisib

>  <Pocket>  (505) 
nan

>  <ATP_Site>  (505) 
nan

>  <Peripheral>  (505) 
nan

>  <Num_H_Atoms_ProtBoundConf>  (505) 
nan

>  <Num_Resolved_Atoms>  (505) 
nan

>  <Num_Not_Resolved_Atoms>  (505) 
nan

$$$$
CHEMBL1289601
     RDKit          3D

  0  0  0  0  0  0  0  0  0  0999 V3000
M  V30 BEGIN CTAB
M  V30 COUNTS 49 52 0 0 0
M  V30 BEGIN ATOM
M  V30 1 C 0.676452 -7.003814 2.908913 0
M  V30 2 O 0.508935 -6.164237 1.782199 0
M  V30 3 C 1.189126 -4.989005 1.599291 0
M  V30 4 C 2.094913 -4.600611 2.576594 0
M  V30 5 C 2.822198 -3.430264 2.470792 0
M  V30 6 N 3.720987 -2.988309 3.368000 0
M  V30 7 C 4.388292 -1.831412 3.171405 0
M  V30 8 C 4.139816 -1.084918 2.020045 0
M  V30 9 C 3.208308 -1.509016 1.055788 0
M  V30 10 O 3.186966 -0.578354 0.057052 0
M  V30 11 C 2.111390 0.184334 -0.316998 0
M  V30 12 C 1.126991 0.218356 -1.280039 0
M  V30 13 C 0.159572 1.191001 -1.343782 0
M  V30 14 C 0.123364 2.212259 -0.421456 0
M  V30 15 N -0.914055 3.175839 -0.564364 0
M  V30 16 C -2.183860 2.986886 0.091543 0
M  V30 17 O -2.350111 1.953150 0.790066 0
M  V30 18 N -3.221916 3.969009 -0.062374 0
M  V30 19 C -4.467790 3.746277 0.603799 0
M  V30 20 C -5.677903 3.858203 -0.358625 0
M  V30 21 C -5.507752 4.740227 0.835882 0
M  V30 22 C 1.085411 2.235495 0.571895 0
M  V30 23 Cl 0.917777 3.587902 1.671716 0
M  V30 24 C 2.066684 1.231799 0.620885 0
M  V30 25 C 2.578680 -2.696814 1.339470 0
M  V30 26 C 1.698960 -3.044540 0.358671 0
M  V30 27 C 0.977685 -4.205731 0.464200 0
M  V30 28 C 0.013150 -4.666931 -0.526811 0
M  V30 29 N -0.228107 -3.894633 -1.696118 0
M  V30 30 O -0.574897 -5.754288 -0.294257 0
M  V30 31 H 1.680451 -7.464308 2.882306 0
M  V30 32 H -0.071764 -7.808278 2.939259 0
M  V30 33 H 0.639275 -6.390149 3.853897 0
M  V30 34 H 2.256200 -5.212121 3.456557 0
M  V30 35 H 5.082201 -1.576935 3.953530 0
M  V30 36 H 4.769980 -0.181876 2.031631 0
M  V30 37 H 1.288226 -0.636610 -1.936822 0
M  V30 38 H -0.515045 1.059154 -2.148865 0
M  V30 39 H -0.725981 4.020779 -1.157534 0
M  V30 40 H -3.016219 4.802944 -0.656387 0
M  V30 41 H -4.487504 2.803598 1.185676 0
M  V30 42 H -5.517059 4.338465 -1.341947 0
M  V30 43 H -6.418202 3.049717 -0.360479 0
M  V30 44 H -5.395563 5.814309 0.660501 0
M  V30 45 H -6.211329 4.529425 1.667767 0
M  V30 46 H 2.706193 1.468049 1.488455 0
M  V30 47 H 1.517723 -2.479949 -0.520571 0
M  V30 48 H -0.244110 -4.229548 -2.703764 0
M  V30 49 H -0.413842 -2.861975 -1.540995 0
M  V30 END ATOM
M  V30 BEGIN BOND
M  V30 1 1 1 2
M  V30 2 1 2 3
M  V30 3 2 3 4
M  V30 4 1 4 5
M  V30 5 2 5 6
M  V30 6 1 6 7
M  V30 7 2 7 8
M  V30 8 1 8 9
M  V30 9 1 9 10
M  V30 10 1 10 11
M  V30 11 2 11 12
M  V30 12 1 12 13
M  V30 13 2 13 14
M  V30 14 1 14 15
M  V30 15 1 15 16
M  V30 16 2 16 17
M  V30 17 1 16 18
M  V30 18 1 18 19
M  V30 19 1 19 20
M  V30 20 1 20 21
M  V30 21 1 14 22
M  V30 22 1 22 23
M  V30 23 2 22 24
M  V30 24 2 9 25
M  V30 25 1 25 26
M  V30 26 2 26 27
M  V30 27 1 27 28
M  V30 28 1 28 29
M  V30 29 2 28 30
M  V30 30 1 27 3
M  V30 31 1 25 5
M  V30 32 1 24 11
M  V30 33 1 21 19
M  V30 34 1 1 31
M  V30 35 1 1 32
M  V30 36 1 1 33
M  V30 37 1 4 34
M  V30 38 1 7 35
M  V30 39 1 8 36
M  V30 40 1 12 37
M  V30 41 1 13 38
M  V30 42 1 15 39
M  V30 43 1 18 40
M  V30 44 1 19 41
M  V30 45 1 20 42
M  V30 46 1 20 43
M  V30 47 1 21 44
M  V30 48 1 21 45
M  V30 49 1 24 46
M  V30 50 1 26 47
M  V30 51 1 29 48
M  V30 52 1 29 49
M  V30 END BOND
M  V30 END CTAB
M  END
>  <Dataset>  (506) 
OralDrugs

>  <Ligand_Instance>  (506) 
nan

>  <PDB_ID>  (506) 
nan

>  <Standardized_SMILES>  (506) 
COc1cc2nccc(Oc3ccc(NC(=O)NC4CC4)c(Cl)c3)c2cc1C(N)=O

>  <Name>  (506) 
Lenvatinib

>  <Pocket>  (506) 
nan

>  <ATP_Site>  (506) 
nan

>  <Peripheral>  (506) 
nan

>  <Num_H_Atoms_ProtBoundConf>  (506) 
nan

>  <Num_Resolved_Atoms>  (506) 
nan

>  <Num_Not_Resolved_Atoms>  (506) 
nan

$$$$
CHEMBL2105720
     RDKit          3D

  0  0  0  0  0  0  0  0  0  0999 V3000
M  V30 BEGIN CTAB
M  V30 COUNTS 38 41 0 0 0
M  V30 BEGIN ATOM
M  V30 1 O 0.664228 -4.843876 0.927119 0
M  V30 2 C 0.940287 -4.710160 -0.313450 0
M  V30 3 O 0.365574 -5.584888 -1.220246 0
M  V30 4 C 1.876626 -3.586357 -0.598783 0
M  V30 5 S 2.257674 -2.838559 0.991629 0
M  V30 6 C 3.359326 -1.472583 0.897574 0
M  V30 7 N 4.702533 -1.382684 0.947157 0
M  V30 8 N 5.072178 -0.122940 0.832046 0
M  V30 9 C 3.970344 0.640046 0.704124 0
M  V30 10 Br 3.908514 2.554273 0.501783 0
M  V30 11 N 2.902032 -0.190908 0.743867 0
M  V30 12 C 1.588912 0.253928 0.639808 0
M  V30 13 C 1.122077 0.779267 -0.561340 0
M  V30 14 C -0.186008 1.232999 -0.699225 0
M  V30 15 C -1.083722 1.177014 0.370741 0
M  V30 16 C -2.467352 1.649558 0.249005 0
M  V30 17 C -3.470119 0.583018 -0.205680 0
M  V30 18 C -3.107346 1.708092 -1.090899 0
M  V30 19 C -0.641535 0.658660 1.574213 0
M  V30 20 C -1.492514 0.583571 2.658106 0
M  V30 21 C -1.079200 0.065846 3.888195 0
M  V30 22 C 0.232009 -0.376305 3.986184 0
M  V30 23 C 1.071626 -0.300733 2.912045 0
M  V30 24 C 0.673733 0.209397 1.690762 0
M  V30 25 H -0.551272 -6.017009 -1.038626 0
M  V30 26 H 1.369598 -2.913043 -1.314152 0
M  V30 27 H 2.754856 -4.012653 -1.106378 0
M  V30 28 H 1.771809 0.854920 -1.446890 0
M  V30 29 H -0.513798 1.640207 -1.664227 0
M  V30 30 H -2.856592 2.409866 0.970501 0
M  V30 31 H -4.473156 0.579385 0.253010 0
M  V30 32 H -3.092784 -0.437712 -0.432558 0
M  V30 33 H -3.908742 2.472600 -1.284224 0
M  V30 34 H -2.569084 1.426610 -2.018485 0
M  V30 35 H -2.517681 0.929730 2.580025 0
M  V30 36 H -1.734875 -0.000831 4.751354 0
M  V30 37 H 0.533331 -0.778400 4.961155 0
M  V30 38 H 2.083231 -0.660478 3.046942 0
M  V30 END ATOM
M  V30 BEGIN BOND
M  V30 1 2 1 2
M  V30 2 1 2 3
M  V30 3 1 2 4
M  V30 4 1 4 5
M  V30 5 1 5 6
M  V30 6 2 6 7
M  V30 7 1 7 8
M  V30 8 2 8 9
M  V30 9 1 9 10
M  V30 10 1 9 11
M  V30 11 1 11 12
M  V30 12 2 12 13
M  V30 13 1 13 14
M  V30 14 2 14 15
M  V30 15 1 15 16
M  V30 16 1 16 17
M  V30 17 1 17 18
M  V30 18 1 15 19
M  V30 19 2 19 20
M  V30 20 1 20 21
M  V30 21 2 21 22
M  V30 22 1 22 23
M  V30 23 2 23 24
M  V30 24 1 11 6
M  V30 25 1 24 12
M  V30 26 1 18 16
M  V30 27 1 24 19
M  V30 28 1 3 25
M  V30 29 1 4 26
M  V30 30 1 4 27
M  V30 31 1 13 28
M  V30 32 1 14 29
M  V30 33 1 16 30
M  V30 34 1 17 31
M  V30 35 1 17 32
M  V30 36 1 18 33
M  V30 37 1 18 34
M  V30 38 1 20 35
M  V30 39 1 21 36
M  V30 40 1 22 37
M  V30 41 1 23 38
M  V30 END BOND
M  V30 END CTAB
M  END
>  <Dataset>  (507) 
OralDrugs

>  <Ligand_Instance>  (507) 
nan

>  <PDB_ID>  (507) 
nan

>  <Standardized_SMILES>  (507) 
O=C(O)CSc1nnc(Br)n1-c1ccc(C2CC2)c2ccccc12

>  <Name>  (507) 
Lesinurad

>  <Pocket>  (507) 
nan

>  <ATP_Site>  (507) 
nan

>  <Peripheral>  (507) 
nan

>  <Num_H_Atoms_ProtBoundConf>  (507) 
nan

>  <Num_Resolved_Atoms>  (507) 
nan

>  <Num_Not_Resolved_Atoms>  (507) 
nan

$$$$
CHEMBL1241951
     RDKit          3D

  0  0  0  0  0  0  0  0  0  0999 V3000
M  V30 BEGIN CTAB
M  V30 COUNTS 69 73 0 0 0
M  V30 BEGIN ATOM
M  V30 1 C 4.097499 -0.170306 6.298164 0
M  V30 2 O 3.996938 -1.603121 6.331988 0
M  V30 3 C 3.512295 -2.246305 5.183604 0
M  V30 4 C 3.393076 -3.641311 5.181257 0
M  V30 5 C 2.912162 -4.267520 4.042220 0
M  V30 6 C 2.545768 -3.560679 2.907093 0
M  V30 7 C 2.661223 -2.192718 2.906679 0
M  V30 8 N 2.273147 -1.528881 1.713026 0
M  V30 9 C 1.866342 -2.324590 0.572580 0
M  V30 10 C 1.801263 -1.510157 -0.690653 0
M  V30 11 N 0.808515 -0.441700 -0.471543 0
M  V30 12 C -0.073338 -0.202959 -1.584464 0
M  V30 13 N 0.715343 0.230348 -2.509322 0
M  V30 14 C 0.183082 0.564752 -3.773516 0
M  V30 15 C 0.903517 1.066581 -4.844497 0
M  V30 16 F 2.225594 1.185692 -4.559814 0
M  V30 17 C 0.335377 1.397697 -6.054658 0
M  V30 18 C -1.032437 1.200744 -6.158680 0
M  V30 19 C -1.750349 0.704978 -5.099770 0
M  V30 20 C -1.174806 0.367672 -3.867869 0
M  V30 21 C -2.233989 -0.183485 -2.947681 0 CFG=2
M  V30 22 C -3.409671 0.718723 -2.847093 0
M  V30 23 C -4.439607 0.110400 -1.959418 0
M  V30 24 O -4.235886 -1.091187 -1.628544 0
M  V30 25 O -5.574797 0.663084 -1.450245 0
M  V30 26 N -1.516591 -0.354148 -1.669706 0
M  V30 27 C -1.901435 -0.638853 -0.312356 0
M  V30 28 C -1.875405 -1.882294 0.334670 0
M  V30 29 C -2.281025 -2.028827 1.644676 0
M  V30 30 C -2.209882 -3.387755 2.234007 0
M  V30 31 F -0.890784 -3.523984 2.689149 0
M  V30 32 F -3.090284 -3.537328 3.284461 0
M  V30 33 F -2.475107 -4.298273 1.227694 0
M  V30 34 C -2.722954 -0.916714 2.329056 0
M  V30 35 C -2.774467 0.326289 1.760901 0
M  V30 36 C -2.359976 0.469003 0.428051 0
M  V30 37 O -2.450023 1.763760 -0.045429 0
M  V30 38 C -2.903530 2.876854 0.676021 0
M  V30 39 C 0.851139 0.225597 0.809667 0
M  V30 40 C 2.213588 -0.086584 1.464200 0
M  V30 41 C 3.140008 -1.576347 4.040599 0
M  V30 42 H 4.817652 0.074217 5.507533 0
M  V30 43 H 3.090722 0.174515 5.932481 0
M  V30 44 H 4.312200 0.254372 7.278263 0
M  V30 45 H 3.687542 -4.176395 6.081377 0
M  V30 46 H 2.862945 -5.340619 4.146956 0
M  V30 47 H 2.198025 -4.211684 2.140823 0
M  V30 48 H 0.861254 -2.713367 0.783849 0
M  V30 49 H 2.615441 -3.153818 0.486067 0
M  V30 50 H 2.800687 -1.002809 -0.830244 0
M  V30 51 H 1.569223 -2.140562 -1.555425 0
M  V30 52 H 1.047038 1.775043 -6.780704 0
M  V30 53 H -1.397943 1.488663 -7.139099 0
M  V30 54 H -2.782081 0.632520 -5.421202 0
M  V30 55 H -2.551115 -1.159068 -3.366432 0
M  V30 56 H -3.209253 1.774768 -2.655018 0
M  V30 57 H -3.913370 0.692513 -3.865445 0
M  V30 58 H -6.179825 0.169760 -0.799584 0
M  V30 59 H -1.509270 -2.673292 -0.297423 0
M  V30 60 H -3.033052 -1.092949 3.361568 0
M  V30 61 H -3.133208 1.144438 2.353257 0
M  V30 62 H -2.332259 3.013255 1.638322 0
M  V30 63 H -3.961988 2.812995 0.997030 0
M  V30 64 H -2.790498 3.831470 0.120020 0
M  V30 65 H 0.757263 1.311999 0.783834 0
M  V30 66 H 0.140230 -0.164916 1.555308 0
M  V30 67 H 3.046817 0.251928 0.812615 0
M  V30 68 H 2.309322 0.455127 2.427439 0
M  V30 69 H 3.226807 -0.510031 4.023654 0
M  V30 END ATOM
M  V30 BEGIN BOND
M  V30 1 1 1 2
M  V30 2 1 2 3
M  V30 3 2 3 4
M  V30 4 1 4 5
M  V30 5 2 5 6
M  V30 6 1 6 7
M  V30 7 1 7 8
M  V30 8 1 8 9
M  V30 9 1 9 10
M  V30 10 1 10 11
M  V30 11 1 11 12
M  V30 12 2 12 13
M  V30 13 1 13 14
M  V30 14 2 14 15
M  V30 15 1 15 16
M  V30 16 1 15 17
M  V30 17 2 17 18
M  V30 18 1 18 19
M  V30 19 2 19 20
M  V30 20 1 20 21
M  V30 21 1 21 22
M  V30 22 1 22 23
M  V30 23 2 23 24
M  V30 24 1 23 25
M  V30 25 1 21 26
M  V30 26 1 26 27
M  V30 27 2 27 28
M  V30 28 1 28 29
M  V30 29 1 29 30
M  V30 30 1 30 31
M  V30 31 1 30 32
M  V30 32 1 30 33
M  V30 33 2 29 34
M  V30 34 1 34 35
M  V30 35 2 35 36
M  V30 36 1 36 37
M  V30 37 1 37 38
M  V30 38 1 11 39
M  V30 39 1 39 40
M  V30 40 2 7 41
M  V30 41 1 41 3
M  V30 42 1 40 8
M  V30 43 1 26 12
M  V30 44 1 36 27
M  V30 45 1 20 14
M  V30 46 1 1 42
M  V30 47 1 1 43
M  V30 48 1 1 44
M  V30 49 1 4 45
M  V30 50 1 5 46
M  V30 51 1 6 47
M  V30 52 1 9 48
M  V30 53 1 9 49
M  V30 54 1 10 50
M  V30 55 1 10 51
M  V30 56 1 17 52
M  V30 57 1 18 53
M  V30 58 1 19 54
M  V30 59 1 21 55 CFG=3
M  V30 60 1 22 56
M  V30 61 1 22 57
M  V30 62 1 25 58
M  V30 63 1 28 59
M  V30 64 1 34 60
M  V30 65 1 35 61
M  V30 66 1 38 62
M  V30 67 1 38 63
M  V30 68 1 38 64
M  V30 69 1 39 65
M  V30 70 1 39 66
M  V30 71 1 40 67
M  V30 72 1 40 68
M  V30 73 1 41 69
M  V30 END BOND
M  V30 END CTAB
M  END
>  <Dataset>  (508) 
OralDrugs

>  <Ligand_Instance>  (508) 
nan

>  <PDB_ID>  (508) 
nan

>  <Standardized_SMILES>  (508) 
COc1cccc(N2CCN(C3=Nc4c(F)cccc4[C@H](CC(=O)O)N3c3cc(C(F)(F)F)ccc3OC)CC2)c1

>  <Name>  (508) 
Letermovir

>  <Pocket>  (508) 
nan

>  <ATP_Site>  (508) 
nan

>  <Peripheral>  (508) 
nan

>  <Num_H_Atoms_ProtBoundConf>  (508) 
nan

>  <Num_Resolved_Atoms>  (508) 
nan

>  <Num_Not_Resolved_Atoms>  (508) 
nan

$$$$
CHEMBL1444
     RDKit          3D

  0  0  0  0  0  0  0  0  0  0999 V3000
M  V30 BEGIN CTAB
M  V30 COUNTS 33 35 0 0 0
M  V30 BEGIN ATOM
M  V30 1 N 1.949689 -4.223573 5.315234 0
M  V30 2 C 1.434681 -3.609986 4.475785 0
M  V30 3 C 0.781913 -2.844086 3.436770 0
M  V30 4 C 1.140791 -3.133677 2.146112 0
M  V30 5 C 0.521069 -2.406103 1.153255 0
M  V30 6 C -0.422357 -1.423863 1.417275 0
M  V30 7 C -1.106439 -0.625473 0.388898 0
M  V30 8 C -0.340203 0.620441 0.083466 0
M  V30 9 C 0.588015 0.438511 -0.947686 0
M  V30 10 C 1.362262 1.544758 -1.316031 0
M  V30 11 C 1.232120 2.778169 -0.699276 0
M  V30 12 C 2.062953 3.887482 -1.124937 0
M  V30 13 N 2.733671 4.775624 -1.452526 0
M  V30 14 C 0.298415 2.913272 0.319243 0
M  V30 15 C -0.480158 1.840495 0.705148 0
M  V30 16 N -1.388506 -1.386268 -0.811760 0
M  V30 17 C -1.540229 -2.691024 -1.044024 0
M  V30 18 N -1.792057 -2.855980 -2.353540 0
M  V30 19 C -1.797728 -1.641909 -2.945466 0
M  V30 20 N -1.548344 -0.762248 -1.979495 0
M  V30 21 C -0.710021 -1.213632 2.761863 0
M  V30 22 C -0.129073 -1.903637 3.805161 0
M  V30 23 H 1.876950 -3.895373 1.872716 0
M  V30 24 H 0.773444 -2.601281 0.125610 0
M  V30 25 H -2.100355 -0.308170 0.820986 0
M  V30 26 H 0.763550 -0.481687 -1.488944 0
M  V30 27 H 2.095651 1.410946 -2.126880 0
M  V30 28 H 0.175233 3.869892 0.820595 0
M  V30 29 H -1.221276 1.883089 1.488317 0
M  V30 30 H -1.454843 -3.414300 -0.240133 0
M  V30 31 H -1.965518 -1.392141 -3.984060 0
M  V30 32 H -1.452177 -0.442685 2.994191 0
M  V30 33 H -0.400144 -1.687656 4.819242 0
M  V30 END ATOM
M  V30 BEGIN BOND
M  V30 1 3 1 2
M  V30 2 1 2 3
M  V30 3 2 3 4
M  V30 4 1 4 5
M  V30 5 2 5 6
M  V30 6 1 6 7
M  V30 7 1 7 8
M  V30 8 2 8 9
M  V30 9 1 9 10
M  V30 10 2 10 11
M  V30 11 1 11 12
M  V30 12 3 12 13
M  V30 13 1 11 14
M  V30 14 2 14 15
M  V30 15 1 7 16
M  V30 16 1 16 17
M  V30 17 2 17 18
M  V30 18 1 18 19
M  V30 19 2 19 20
M  V30 20 1 6 21
M  V30 21 2 21 22
M  V30 22 1 22 3
M  V30 23 1 15 8
M  V30 24 1 20 16
M  V30 25 1 4 23
M  V30 26 1 5 24
M  V30 27 1 7 25
M  V30 28 1 9 26
M  V30 29 1 10 27
M  V30 30 1 14 28
M  V30 31 1 15 29
M  V30 32 1 17 30
M  V30 33 1 19 31
M  V30 34 1 21 32
M  V30 35 1 22 33
M  V30 END BOND
M  V30 END CTAB
M  END
>  <Dataset>  (509) 
OralDrugs

>  <Ligand_Instance>  (509) 
nan

>  <PDB_ID>  (509) 
nan

>  <Standardized_SMILES>  (509) 
N#Cc1ccc(C(c2ccc(C#N)cc2)n2cncn2)cc1

>  <Name>  (509) 
Letrozole

>  <Pocket>  (509) 
nan

>  <ATP_Site>  (509) 
nan

>  <Peripheral>  (509) 
nan

>  <Num_H_Atoms_ProtBoundConf>  (509) 
nan

>  <Num_Resolved_Atoms>  (509) 
nan

>  <Num_Not_Resolved_Atoms>  (509) 
nan

$$$$
CHEMBL1679
     RDKit          3D

  0  0  0  0  0  0  0  0  0  0999 V3000
M  V30 BEGIN CTAB
M  V30 COUNTS 57 59 0 0 0
M  V30 BEGIN ATOM
M  V30 1 N -7.976340 2.534769 0.156368 0
M  V30 2 C -7.060096 1.864502 -0.704711 0
M  V30 3 N -7.558266 0.931823 -1.544145 0
M  V30 4 C -6.728996 0.272784 -2.376761 0
M  V30 5 O -7.145797 -0.595005 -3.167144 0
M  V30 6 C -5.399180 0.611105 -2.305245 0
M  V30 7 C -4.850583 1.561227 -1.458185 0
M  V30 8 N -5.741909 2.181963 -0.651702 0
M  V30 9 N -3.449213 1.819722 -1.480708 0
M  V30 10 C -2.602557 0.697642 -1.889653 0
M  V30 11 C -3.068473 0.095793 -3.165122 0
M  V30 12 C -2.358111 -1.183659 -3.469055 0
M  V30 13 N -0.948472 -1.115309 -3.620906 0
M  V30 14 C 0.226259 -1.032248 -2.841760 0
M  V30 15 C 1.495146 -0.914056 -3.426249 0
M  V30 16 C 2.618151 -0.863443 -2.644254 0
M  V30 17 C 2.535534 -0.926599 -1.272445 0
M  V30 18 C 3.799848 -0.863556 -0.549995 0
M  V30 19 O 4.875223 -0.760682 -1.159936 0
M  V30 20 N 3.906719 -0.912565 0.863043 0
M  V30 21 C 5.078373 -0.859700 1.667566 0 CFG=1
M  V30 22 C 5.101222 0.293525 2.639149 0
M  V30 23 C 3.938282 0.241184 3.606015 0
M  V30 24 C 3.971273 1.378687 4.555793 0
M  V30 25 O 3.006117 1.375062 5.390889 0
M  V30 26 O 4.122040 2.470726 5.364198 0
M  V30 27 C 5.158848 -2.105967 2.482474 0
M  V30 28 O 4.157031 -2.845310 2.216300 0
M  V30 29 O 5.382044 -3.203077 3.308669 0
M  V30 30 C 1.320789 -1.043221 -0.635561 0
M  V30 31 C 0.226619 -1.089598 -1.473631 0
M  V30 32 N -4.515711 -0.076530 -3.184679 0
M  V30 33 C -4.878077 -1.000747 -4.182645 0
M  V30 34 O -5.555647 -1.734310 -4.925499 0
M  V30 35 H -8.120823 3.508830 0.497128 0
M  V30 36 H -8.750537 2.019330 0.628393 0
M  V30 37 H -5.349231 2.901390 -0.006093 0
M  V30 38 H -3.184157 2.787443 -1.203252 0
M  V30 39 H -2.712014 -0.038333 -1.067928 0
M  V30 40 H -1.575562 1.099668 -1.949275 0
M  V30 41 H -2.872007 0.779584 -4.040882 0
M  V30 42 H -2.644406 -1.924349 -2.638803 0
M  V30 43 H -2.853992 -1.629842 -4.361069 0
M  V30 44 H -0.724058 -1.127521 -4.669094 0
M  V30 45 H 1.593474 -0.861163 -4.521997 0
M  V30 46 H 3.560501 -0.771944 -3.164425 0
M  V30 47 H 3.043222 -0.998577 1.443603 0
M  V30 48 H 5.980412 -0.771000 1.020066 0
M  V30 49 H 6.035820 0.279369 3.229060 0
M  V30 50 H 5.031694 1.257963 2.096814 0
M  V30 51 H 3.874715 -0.672922 4.194514 0
M  V30 52 H 2.966439 0.326426 3.039406 0
M  V30 53 H 5.038780 2.943890 5.357533 0
M  V30 54 H 5.506007 -3.063892 4.313789 0
M  V30 55 H 1.275507 -1.091434 0.442201 0
M  V30 56 H -0.689885 -1.195564 -0.906909 0
M  V30 57 H -5.472273 -1.631315 -4.819691 0
M  V30 END ATOM
M  V30 BEGIN BOND
M  V30 1 1 1 2
M  V30 2 2 2 3
M  V30 3 1 3 4
M  V30 4 2 4 5
M  V30 5 1 4 6
M  V30 6 2 6 7
M  V30 7 1 7 8
M  V30 8 1 7 9
M  V30 9 1 9 10
M  V30 10 1 10 11
M  V30 11 1 11 12
M  V30 12 1 12 13
M  V30 13 1 13 14
M  V30 14 2 14 15
M  V30 15 1 15 16
M  V30 16 2 16 17
M  V30 17 1 17 18
M  V30 18 2 18 19
M  V30 19 1 18 20
M  V30 20 1 20 21
M  V30 21 1 21 22
M  V30 22 1 22 23
M  V30 23 1 23 24
M  V30 24 2 24 25
M  V30 25 1 24 26
M  V30 26 1 21 27
M  V30 27 2 27 28
M  V30 28 1 27 29
M  V30 29 1 17 30
M  V30 30 2 30 31
M  V30 31 1 11 32
M  V30 32 1 32 33
M  V30 33 2 33 34
M  V30 34 1 8 2
M  V30 35 1 31 14
M  V30 36 1 32 6
M  V30 37 1 1 35
M  V30 38 1 1 36
M  V30 39 1 8 37
M  V30 40 1 9 38
M  V30 41 1 10 39
M  V30 42 1 10 40
M  V30 43 1 11 41
M  V30 44 1 12 42
M  V30 45 1 12 43
M  V30 46 1 13 44
M  V30 47 1 15 45
M  V30 48 1 16 46
M  V30 49 1 20 47
M  V30 50 1 21 48 CFG=3
M  V30 51 1 22 49
M  V30 52 1 22 50
M  V30 53 1 23 51
M  V30 54 1 23 52
M  V30 55 1 26 53
M  V30 56 1 29 54
M  V30 57 1 30 55
M  V30 58 1 31 56
M  V30 59 1 33 57
M  V30 END BOND
M  V30 END CTAB
M  END
>  <Dataset>  (510) 
OralDrugs

>  <Ligand_Instance>  (510) 
nan

>  <PDB_ID>  (510) 
nan

>  <Standardized_SMILES>  (510) 
Nc1nc(=O)c2c([nH]1)NCC(CNc1ccc(C(=O)N[C@@H](CCC(=O)O)C(=O)O)cc1)N2C=O

>  <Name>  (510) 
Leucovorin

>  <Pocket>  (510) 
nan

>  <ATP_Site>  (510) 
nan

>  <Peripheral>  (510) 
nan

>  <Num_H_Atoms_ProtBoundConf>  (510) 
nan

>  <Num_Resolved_Atoms>  (510) 
nan

>  <Num_Not_Resolved_Atoms>  (510) 
nan

$$$$
CHEMBL1770
     RDKit          3D

  0  0  0  0  0  0  0  0  0  0999 V3000
M  V30 BEGIN CTAB
M  V30 COUNTS 26 28 0 0 0
M  V30 BEGIN ATOM
M  V30 1 C -1.094438 -0.119395 4.016178 0
M  V30 2 C -0.303879 -1.228559 3.853685 0
M  V30 3 C -0.113527 -1.758797 2.573266 0
M  V30 4 C -0.730246 -1.153917 1.471842 0
M  V30 5 C -0.403605 -1.863330 0.220284 0 CFG=1
M  V30 6 C -0.563073 -1.041371 -1.023645 0
M  V30 7 N 0.703251 -0.349486 -1.068932 0
M  V30 8 C 1.206115 0.917228 -1.469662 0
M  V30 9 C 2.661897 0.982167 -1.334218 0
M  V30 10 S 3.250158 -0.753903 -1.202825 0
M  V30 11 C 1.651715 -1.299624 -0.536739 0
M  V30 12 N 1.016463 -2.154628 0.190692 0
M  V30 13 C -1.512967 -0.047675 1.670800 0
M  V30 14 C -1.700739 0.475222 2.933170 0
M  V30 15 H -1.313083 0.378676 4.963429 0
M  V30 16 H 0.113500 -1.602707 4.765279 0
M  V30 17 H 0.531297 -2.630712 2.595399 0
M  V30 18 H -0.972315 -2.815957 0.185959 0
M  V30 19 H -1.455328 -0.399294 -1.051468 0
M  V30 20 H -0.619637 -1.762483 -1.872503 0
M  V30 21 H 0.874107 1.087543 -2.536576 0
M  V30 22 H 0.692104 1.740602 -0.897940 0
M  V30 23 H 2.927300 1.431982 -0.349580 0
M  V30 24 H 3.211398 1.537278 -2.115837 0
M  V30 25 H -1.938614 0.343242 0.785431 0
M  V30 26 H -2.341897 1.350968 2.952656 0
M  V30 END ATOM
M  V30 BEGIN BOND
M  V30 1 2 1 2
M  V30 2 1 2 3
M  V30 3 2 3 4
M  V30 4 1 4 5
M  V30 5 1 5 6
M  V30 6 1 6 7
M  V30 7 1 7 8
M  V30 8 1 8 9
M  V30 9 1 9 10
M  V30 10 1 10 11
M  V30 11 2 11 12
M  V30 12 1 4 13
M  V30 13 2 13 14
M  V30 14 1 14 1
M  V30 15 1 12 5
M  V30 16 1 11 7
M  V30 17 1 1 15
M  V30 18 1 2 16
M  V30 19 1 3 17
M  V30 20 1 5 18 CFG=3
M  V30 21 1 6 19
M  V30 22 1 6 20
M  V30 23 1 8 21
M  V30 24 1 8 22
M  V30 25 1 9 23
M  V30 26 1 9 24
M  V30 27 1 13 25
M  V30 28 1 14 26
M  V30 END BOND
M  V30 END CTAB
M  END
>  <Dataset>  (511) 
OralDrugs

>  <Ligand_Instance>  (511) 
nan

>  <PDB_ID>  (511) 
nan

>  <Standardized_SMILES>  (511) 
c1ccc([C@H]2CN3CCSC3=N2)cc1

>  <Name>  (511) 
Levamisole Hydrochloride

>  <Pocket>  (511) 
nan

>  <ATP_Site>  (511) 
nan

>  <Peripheral>  (511) 
nan

>  <Num_H_Atoms_ProtBoundConf>  (511) 
nan

>  <Num_Resolved_Atoms>  (511) 
nan

>  <Num_Not_Resolved_Atoms>  (511) 
nan

$$$$
CHEMBL2111097
     RDKit          3D

  0  0  0  0  0  0  0  0  0  0999 V3000
M  V30 BEGIN CTAB
M  V30 COUNTS 53 54 0 0 0
M  V30 BEGIN ATOM
M  V30 1 C 0.745410 1.375840 -5.169422 0
M  V30 2 C 1.758376 0.321702 -4.736752 0
M  V30 3 O 1.492307 -0.010083 -3.413925 0
M  V30 4 C 0.347768 -0.551379 -2.908375 0
M  V30 5 O -0.097339 -0.532289 -4.083502 0
M  V30 6 C -0.056939 -0.938958 -1.556314 0
M  V30 7 C -1.250070 -1.456238 -1.345506 0
M  V30 8 C -2.298845 -1.711492 -2.347595 0
M  V30 9 O -3.482905 -1.093347 -2.232133 0
M  V30 10 C -4.247102 -1.207535 -1.124520 0
M  V30 11 C -5.559469 -0.446331 -1.351482 0
M  V30 12 N -6.411741 -0.540652 -0.185847 0
M  V30 13 N -1.372389 -1.834871 0.022481 0
M  V30 14 C -0.376645 -1.693253 1.069324 0
M  V30 15 C -0.740762 -2.168640 2.428043 0
M  V30 16 C 0.794179 -1.127771 0.680270 0
M  V30 17 C 1.740156 -1.019969 1.749386 0
M  V30 18 O 1.488391 -1.410185 2.880065 0
M  V30 19 O 2.536668 -0.971357 2.813416 0
M  V30 20 C 2.518781 -1.315766 4.135236 0
M  V30 21 C 1.037446 -0.630975 -0.686815 0 CFG=2
M  V30 22 C 1.603245 0.712465 -0.787466 0
M  V30 23 C 0.683260 1.607508 -1.340800 0
M  V30 24 C 0.893606 2.961625 -1.483572 0
M  V30 25 C 2.085203 3.553196 -1.068869 0
M  V30 26 C 3.016233 2.701715 -0.519013 0
M  V30 27 C 2.735317 1.386637 -0.415282 0
M  V30 28 Cl 3.904956 0.197962 0.182805 0
M  V30 29 H 1.282421 2.274896 -5.582888 0
M  V30 30 H 0.142180 1.757165 -4.320812 0
M  V30 31 H 0.046513 0.989721 -5.941456 0
M  V30 32 H 2.760629 0.723518 -4.904473 0
M  V30 33 H 1.641522 -0.520194 -5.449704 0
M  V30 34 H -2.526500 -2.839572 -2.221806 0
M  V30 35 H -1.871007 -1.702946 -3.376544 0
M  V30 36 H -3.757193 -0.650954 -0.282000 0
M  V30 37 H -4.470894 -2.227722 -0.770275 0
M  V30 38 H -5.384572 0.605758 -1.578105 0
M  V30 39 H -6.103761 -0.903183 -2.200719 0
M  V30 40 H -6.481089 -1.501266 0.210941 0
M  V30 41 H -7.383832 -0.241916 -0.437320 0
M  V30 42 H -2.291215 -2.289744 0.289507 0
M  V30 43 H -0.740918 -1.285802 3.131380 0
M  V30 44 H -0.135261 -3.011484 2.791584 0
M  V30 45 H -1.833035 -2.438911 2.400062 0
M  V30 46 H 2.395366 -2.407391 4.329969 0
M  V30 47 H 1.785747 -0.760751 4.770592 0
M  V30 48 H 3.554245 -1.093692 4.585942 0
M  V30 49 H 1.925089 -1.303130 -1.033476 0
M  V30 50 H -0.312741 1.414747 -1.727569 0
M  V30 51 H 0.212918 3.709412 -1.909573 0
M  V30 52 H 2.387666 4.573556 -1.115205 0
M  V30 53 H 4.013397 2.967780 -0.131480 0
M  V30 END ATOM
M  V30 BEGIN BOND
M  V30 1 1 1 2
M  V30 2 1 2 3
M  V30 3 1 3 4
M  V30 4 2 4 5
M  V30 5 1 4 6
M  V30 6 2 6 7
M  V30 7 1 7 8
M  V30 8 1 8 9
M  V30 9 1 9 10
M  V30 10 1 10 11
M  V30 11 1 11 12
M  V30 12 1 7 13
M  V30 13 1 13 14
M  V30 14 1 14 15
M  V30 15 2 14 16
M  V30 16 1 16 17
M  V30 17 2 17 18
M  V30 18 1 17 19
M  V30 19 1 19 20
M  V30 20 1 16 21
M  V30 21 1 21 22
M  V30 22 2 22 23
M  V30 23 1 23 24
M  V30 24 2 24 25
M  V30 25 1 25 26
M  V30 26 2 26 27
M  V30 27 1 27 28
M  V30 28 1 21 6
M  V30 29 1 27 22
M  V30 30 1 1 29
M  V30 31 1 1 30
M  V30 32 1 1 31
M  V30 33 1 2 32
M  V30 34 1 2 33
M  V30 35 1 8 34
M  V30 36 1 8 35
M  V30 37 1 10 36
M  V30 38 1 10 37
M  V30 39 1 11 38
M  V30 40 1 11 39
M  V30 41 1 12 40
M  V30 42 1 12 41
M  V30 43 1 13 42
M  V30 44 1 15 43
M  V30 45 1 15 44
M  V30 46 1 15 45
M  V30 47 1 20 46
M  V30 48 1 20 47
M  V30 49 1 20 48
M  V30 50 1 21 49 CFG=3
M  V30 51 1 23 50
M  V30 52 1 24 51
M  V30 53 1 25 52
M  V30 54 1 26 53
M  V30 END BOND
M  V30 END CTAB
M  END
>  <Dataset>  (512) 
OralDrugs

>  <Ligand_Instance>  (512) 
nan

>  <PDB_ID>  (512) 
nan

>  <Standardized_SMILES>  (512) 
CCOC(=O)C1=C(COCCN)NC(C)=C(C(=O)OC)[C@@H]1c1ccccc1Cl

>  <Name>  (512) 
Levamlodipine

>  <Pocket>  (512) 
nan

>  <ATP_Site>  (512) 
nan

>  <Peripheral>  (512) 
nan

>  <Num_H_Atoms_ProtBoundConf>  (512) 
nan

>  <Num_Resolved_Atoms>  (512) 
nan

>  <Num_Not_Resolved_Atoms>  (512) 
nan

$$$$
CHEMBL1286
     RDKit          3D

  0  0  0  0  0  0  0  0  0  0999 V3000
M  V30 BEGIN CTAB
M  V30 COUNTS 26 26 0 0 0
M  V30 BEGIN ATOM
M  V30 1 C 0.310134 1.874874 2.175413 0
M  V30 2 C 1.314871 0.757344 2.017741 0
M  V30 3 C 1.273499 0.253433 0.611010 0 CFG=1
M  V30 4 C 2.281348 -0.854482 0.486392 0
M  V30 5 N 1.891420 -2.187489 0.138047 0
M  V30 6 O 3.529637 -0.710759 0.673295 0
M  V30 7 N -0.069928 -0.253471 0.330821 0
M  V30 8 C -0.648587 -1.316099 1.144031 0
M  V30 9 C -1.455964 -2.045470 0.084949 0
M  V30 10 C -2.161376 -0.847721 -0.554416 0
M  V30 11 C -1.024403 0.106426 -0.664694 0
M  V30 12 O -0.828281 1.081945 -1.443794 0
M  V30 13 H -0.014312 2.247941 1.181351 0
M  V30 14 H 0.743592 2.722274 2.745074 0
M  V30 15 H -0.574036 1.512851 2.710452 0
M  V30 16 H 1.134402 -0.032934 2.765973 0
M  V30 17 H 2.320255 1.188844 2.206669 0
M  V30 18 H 1.582000 1.050332 -0.077343 0
M  V30 19 H 2.409287 -2.583948 -0.701654 0
M  V30 20 H 1.514435 -3.149987 -0.002638 0
M  V30 21 H 0.075942 -1.942770 1.657686 0
M  V30 22 H -1.375262 -0.817877 1.817094 0
M  V30 23 H -0.785348 -2.475552 -0.659274 0
M  V30 24 H -2.177194 -2.754663 0.520078 0
M  V30 25 H -2.936944 -0.421442 0.106285 0
M  V30 26 H -2.553232 -1.138530 -1.550404 0
M  V30 END ATOM
M  V30 BEGIN BOND
M  V30 1 1 1 2
M  V30 2 1 2 3
M  V30 3 1 3 4
M  V30 4 1 4 5
M  V30 5 2 4 6
M  V30 6 1 3 7
M  V30 7 1 7 8
M  V30 8 1 8 9
M  V30 9 1 9 10
M  V30 10 1 10 11
M  V30 11 2 11 12
M  V30 12 1 11 7
M  V30 13 1 1 13
M  V30 14 1 1 14
M  V30 15 1 1 15
M  V30 16 1 2 16
M  V30 17 1 2 17
M  V30 18 1 3 18 CFG=3
M  V30 19 1 5 19
M  V30 20 1 5 20
M  V30 21 1 8 21
M  V30 22 1 8 22
M  V30 23 1 9 23
M  V30 24 1 9 24
M  V30 25 1 10 25
M  V30 26 1 10 26
M  V30 END BOND
M  V30 END CTAB
M  END
>  <Dataset>  (513) 
OralDrugs

>  <Ligand_Instance>  (513) 
nan

>  <PDB_ID>  (513) 
nan

>  <Standardized_SMILES>  (513) 
CC[C@@H](C(N)=O)N1CCCC1=O

>  <Name>  (513) 
Levetiracetam

>  <Pocket>  (513) 
nan

>  <ATP_Site>  (513) 
nan

>  <Peripheral>  (513) 
nan

>  <Num_H_Atoms_ProtBoundConf>  (513) 
nan

>  <Num_Resolved_Atoms>  (513) 
nan

>  <Num_Not_Resolved_Atoms>  (513) 
nan

$$$$
CHEMBL1149
     RDKit          3D

  0  0  0  0  0  0  0  0  0  0999 V3000
M  V30 BEGIN CTAB
M  V30 COUNTS 26 25 0 0 0
M  V30 BEGIN ATOM
M  V30 1 C -0.259543 1.245128 1.228490 0
M  V30 2 N -0.446343 -0.176010 1.516094 0 CHG=1 VAL=4
M  V30 3 C -0.616357 -0.260369 2.982417 0
M  V30 4 C -1.671236 -0.664362 0.967210 0
M  V30 5 C 0.745918 -0.854476 1.192651 0
M  V30 6 C 0.770427 -1.678102 -0.050599 0 CFG=2
M  V30 7 O 2.071007 -2.227603 -0.119768 0
M  V30 8 C 0.563831 -0.935023 -1.316164 0
M  V30 9 C 1.609723 0.108803 -1.570510 0
M  V30 10 O 2.726267 -0.485606 -1.437056 0
M  V30 11 O 1.423048 1.444392 -1.882445 0 CHG=-1 VAL=1
M  V30 12 H -0.324529 1.877185 2.157898 0
M  V30 13 H -1.086058 1.645208 0.569320 0
M  V30 14 H 0.737342 1.474609 0.810396 0
M  V30 15 H -1.279285 -1.117972 3.205054 0
M  V30 16 H 0.355834 -0.462413 3.453738 0
M  V30 17 H -1.010892 0.715253 3.364564 0
M  V30 18 H -1.615723 -1.569024 0.361196 0
M  V30 19 H -2.459287 -0.900335 1.744067 0
M  V30 20 H -2.155289 0.187223 0.399656 0
M  V30 21 H 1.058442 -1.531525 2.026809 0
M  V30 22 H 1.604900 -0.129078 1.111423 0
M  V30 23 H 0.100792 -2.548504 0.058339 0
M  V30 24 H 2.687237 -1.786379 0.512247 0
M  V30 25 H 0.654539 -1.667405 -2.153928 0
M  V30 26 H -0.408808 -0.440542 -1.412955 0
M  V30 END ATOM
M  V30 BEGIN BOND
M  V30 1 1 1 2
M  V30 2 1 2 3
M  V30 3 1 2 4
M  V30 4 1 2 5
M  V30 5 1 5 6
M  V30 6 1 6 7
M  V30 7 1 6 8
M  V30 8 1 8 9
M  V30 9 2 9 10
M  V30 10 1 9 11
M  V30 11 1 1 12
M  V30 12 1 1 13
M  V30 13 1 1 14
M  V30 14 1 3 15
M  V30 15 1 3 16
M  V30 16 1 3 17
M  V30 17 1 4 18
M  V30 18 1 4 19
M  V30 19 1 4 20
M  V30 20 1 5 21
M  V30 21 1 5 22
M  V30 22 1 6 23 CFG=1
M  V30 23 1 7 24
M  V30 24 1 8 25
M  V30 25 1 8 26
M  V30 END BOND
M  V30 END CTAB
M  END
>  <Dataset>  (514) 
OralDrugs

>  <Ligand_Instance>  (514) 
nan

>  <PDB_ID>  (514) 
nan

>  <Standardized_SMILES>  (514) 
C[N+](C)(C)C[C@H](O)CC(=O)[O-]

>  <Name>  (514) 
Levocarnitine

>  <Pocket>  (514) 
nan

>  <ATP_Site>  (514) 
nan

>  <Peripheral>  (514) 
nan

>  <Num_H_Atoms_ProtBoundConf>  (514) 
nan

>  <Num_Resolved_Atoms>  (514) 
nan

>  <Num_Not_Resolved_Atoms>  (514) 
nan

$$$$
CHEMBL1201191
     RDKit          3D

  0  0  0  0  0  0  0  0  0  0999 V3000
M  V30 BEGIN CTAB
M  V30 COUNTS 52 54 0 0 0
M  V30 BEGIN ATOM
M  V30 1 O 0.115603 -6.587390 -3.196609 0
M  V30 2 C -0.575646 -6.038622 -4.114390 0
M  V30 3 O -1.439453 -6.882952 -4.802202 0
M  V30 4 C -0.698209 -4.651861 -4.663956 0
M  V30 5 O 0.104227 -3.727662 -4.052834 0
M  V30 6 C -0.132119 -3.546629 -2.692850 0
M  V30 7 C 0.807444 -2.499245 -2.130210 0
M  V30 8 N 0.634277 -2.248377 -0.732263 0
M  V30 9 C 1.587505 -1.271658 -0.307632 0
M  V30 10 C 1.443878 -0.927913 1.168417 0
M  V30 11 N 0.140560 -0.390478 1.463007 0
M  V30 12 C 0.295166 0.990840 1.860643 0 CFG=2
M  V30 13 C 1.150484 1.130870 3.065019 0
M  V30 14 C 1.040176 0.334612 4.185963 0
M  V30 15 C 1.886598 0.549000 5.253886 0
M  V30 16 C 2.857268 1.543328 5.251018 0
M  V30 17 C 2.999360 2.362000 4.146752 0
M  V30 18 C 2.137215 2.123773 3.091566 0
M  V30 19 C -0.991566 1.674094 2.138205 0
M  V30 20 C -1.275109 2.941447 1.671867 0
M  V30 21 C -2.481986 3.590345 1.927416 0
M  V30 22 C -3.439110 2.936969 2.681540 0
M  V30 23 Cl -4.969470 3.717597 3.025606 0
M  V30 24 C -3.211859 1.664262 3.176567 0
M  V30 25 C -1.984797 1.075937 2.883025 0
M  V30 26 C -0.644894 -0.476664 0.254167 0
M  V30 27 C -0.681108 -1.864606 -0.343476 0
M  V30 28 H -1.483328 -7.861045 -4.538452 0
M  V30 29 H -1.771363 -4.347300 -4.704986 0
M  V30 30 H -0.373792 -4.719066 -5.722446 0
M  V30 31 H 0.113120 -4.511944 -2.191258 0
M  V30 32 H -1.191091 -3.363590 -2.477677 0
M  V30 33 H 1.837151 -2.721561 -2.421758 0
M  V30 34 H 0.549718 -1.531740 -2.651982 0
M  V30 35 H 1.600879 -0.331323 -0.870506 0
M  V30 36 H 2.637906 -1.677199 -0.397862 0
M  V30 37 H 1.699393 -1.799925 1.811746 0
M  V30 38 H 2.257235 -0.184353 1.370208 0
M  V30 39 H 0.815761 1.488935 0.998411 0
M  V30 40 H 0.291698 -0.442532 4.204398 0
M  V30 41 H 1.827853 -0.057902 6.150275 0
M  V30 42 H 3.535870 1.736305 6.072683 0
M  V30 43 H 3.721075 3.164642 4.040927 0
M  V30 44 H 2.217553 2.752230 2.195878 0
M  V30 45 H -0.529829 3.461023 1.079474 0
M  V30 46 H -2.667519 4.598292 1.537839 0
M  V30 47 H -3.963691 1.164560 3.762451 0
M  V30 48 H -1.864068 0.083613 3.295222 0
M  V30 49 H -1.706436 -0.199394 0.528529 0
M  V30 50 H -0.308996 0.260131 -0.528417 0
M  V30 51 H -1.135857 -2.541929 0.410801 0
M  V30 52 H -1.419334 -1.836490 -1.178054 0
M  V30 END ATOM
M  V30 BEGIN BOND
M  V30 1 2 1 2
M  V30 2 1 2 3
M  V30 3 1 2 4
M  V30 4 1 4 5
M  V30 5 1 5 6
M  V30 6 1 6 7
M  V30 7 1 7 8
M  V30 8 1 8 9
M  V30 9 1 9 10
M  V30 10 1 10 11
M  V30 11 1 11 12
M  V30 12 1 12 13
M  V30 13 2 13 14
M  V30 14 1 14 15
M  V30 15 2 15 16
M  V30 16 1 16 17
M  V30 17 2 17 18
M  V30 18 1 12 19
M  V30 19 2 19 20
M  V30 20 1 20 21
M  V30 21 2 21 22
M  V30 22 1 22 23
M  V30 23 1 22 24
M  V30 24 2 24 25
M  V30 25 1 11 26
M  V30 26 1 26 27
M  V30 27 1 27 8
M  V30 28 1 18 13
M  V30 29 1 25 19
M  V30 30 1 3 28
M  V30 31 1 4 29
M  V30 32 1 4 30
M  V30 33 1 6 31
M  V30 34 1 6 32
M  V30 35 1 7 33
M  V30 36 1 7 34
M  V30 37 1 9 35
M  V30 38 1 9 36
M  V30 39 1 10 37
M  V30 40 1 10 38
M  V30 41 1 12 39 CFG=3
M  V30 42 1 14 40
M  V30 43 1 15 41
M  V30 44 1 16 42
M  V30 45 1 17 43
M  V30 46 1 18 44
M  V30 47 1 20 45
M  V30 48 1 21 46
M  V30 49 1 24 47
M  V30 50 1 25 48
M  V30 51 1 26 49
M  V30 52 1 26 50
M  V30 53 1 27 51
M  V30 54 1 27 52
M  V30 END BOND
M  V30 END CTAB
M  END
>  <Dataset>  (515) 
OralDrugs

>  <Ligand_Instance>  (515) 
nan

>  <PDB_ID>  (515) 
nan

>  <Standardized_SMILES>  (515) 
O=C(O)COCCN1CCN([C@H](c2ccccc2)c2ccc(Cl)cc2)CC1

>  <Name>  (515) 
Levocetirizine

>  <Pocket>  (515) 
nan

>  <ATP_Site>  (515) 
nan

>  <Peripheral>  (515) 
nan

>  <Num_H_Atoms_ProtBoundConf>  (515) 
nan

>  <Num_Resolved_Atoms>  (515) 
nan

>  <Num_Not_Resolved_Atoms>  (515) 
nan

$$$$
CHEMBL5315124
     RDKit          3D

  0  0  0  0  0  0  0  0  0  0999 V3000
M  V30 BEGIN CTAB
M  V30 COUNTS 46 49 0 0 0
M  V30 BEGIN ATOM
M  V30 1 C -0.994850 -4.556968 1.839187 0
M  V30 2 C -0.406584 -3.180448 1.847312 0 CFG=1
M  V30 3 C 0.773417 -3.048443 0.907717 0
M  V30 4 O 1.081277 -1.686684 0.840794 0
M  V30 5 C 0.223336 -0.707900 0.442468 0
M  V30 6 C 0.616420 0.436594 -0.221954 0
M  V30 7 N 1.939787 0.708638 -0.570927 0
M  V30 8 C 2.472435 1.884892 -1.232966 0
M  V30 9 C 3.715829 2.340253 -0.511429 0
M  V30 10 N 3.900250 1.816568 0.803328 0
M  V30 11 C 3.352162 2.592888 1.869476 0
M  V30 12 C 3.728445 0.400866 0.921775 0
M  V30 13 C 3.040961 -0.162749 -0.333267 0
M  V30 14 C -0.463742 1.251818 -0.498902 0
M  V30 15 F -0.332924 2.430037 -1.145518 0
M  V30 16 C -1.783812 1.003163 -0.176676 0
M  V30 17 C -2.148142 -0.164938 0.495606 0
M  V30 18 C -3.457783 -0.432863 0.827896 0
M  V30 19 O -4.346174 0.391972 0.517878 0
M  V30 20 C -3.711407 -1.617556 1.494821 0
M  V30 21 C -5.067198 -1.945774 1.865878 0
M  V30 22 O -5.283384 -3.037232 2.477782 0
M  V30 23 O -6.109228 -1.113710 1.574281 0
M  V30 24 C -2.624245 -2.423581 1.766034 0
M  V30 25 N -1.344684 -2.158377 1.439493 0
M  V30 26 C -1.072552 -1.012590 0.790510 0
M  V30 27 H -1.713892 -4.703768 1.008860 0
M  V30 28 H -0.165137 -5.285575 1.653629 0
M  V30 29 H -1.437590 -4.841043 2.812545 0
M  V30 30 H -0.048764 -2.917953 2.863838 0
M  V30 31 H 0.378822 -3.402104 -0.087684 0
M  V30 32 H 1.625855 -3.654468 1.207315 0
M  V30 33 H 1.787644 2.671585 -1.482929 0
M  V30 34 H 2.827010 1.493446 -2.239483 0
M  V30 35 H 3.665459 3.445110 -0.421087 0
M  V30 36 H 4.640246 2.109159 -1.079045 0
M  V30 37 H 2.629659 2.042997 2.493650 0
M  V30 38 H 2.930392 3.556312 1.535239 0
M  V30 39 H 4.208645 2.832360 2.561337 0
M  V30 40 H 3.039125 0.181775 1.761371 0
M  V30 41 H 4.649866 -0.178894 1.087055 0
M  V30 42 H 3.863965 -0.053043 -1.113964 0
M  V30 43 H 2.899551 -1.225787 -0.314412 0
M  V30 44 H -2.608681 1.645495 -0.398584 0
M  V30 45 H -7.063984 -1.427019 1.712036 0
M  V30 46 H -2.917506 -3.342932 2.297617 0
M  V30 END ATOM
M  V30 BEGIN BOND
M  V30 1 1 1 2
M  V30 2 1 2 3
M  V30 3 1 3 4
M  V30 4 1 4 5
M  V30 5 1 5 6
M  V30 6 1 6 7
M  V30 7 1 7 8
M  V30 8 1 8 9
M  V30 9 1 9 10
M  V30 10 1 10 11
M  V30 11 1 10 12
M  V30 12 1 12 13
M  V30 13 2 6 14
M  V30 14 1 14 15
M  V30 15 1 14 16
M  V30 16 2 16 17
M  V30 17 1 17 18
M  V30 18 2 18 19
M  V30 19 1 18 20
M  V30 20 1 20 21
M  V30 21 2 21 22
M  V30 22 1 21 23
M  V30 23 2 20 24
M  V30 24 1 24 25
M  V30 25 1 25 26
M  V30 26 1 25 2
M  V30 27 2 26 5
M  V30 28 1 13 7
M  V30 29 1 26 17
M  V30 30 1 1 27
M  V30 31 1 1 28
M  V30 32 1 1 29
M  V30 33 1 2 30 CFG=1
M  V30 34 1 3 31
M  V30 35 1 3 32
M  V30 36 1 8 33
M  V30 37 1 8 34
M  V30 38 1 9 35
M  V30 39 1 9 36
M  V30 40 1 11 37
M  V30 41 1 11 38
M  V30 42 1 11 39
M  V30 43 1 12 40
M  V30 44 1 12 41
M  V30 45 1 13 42
M  V30 46 1 13 43
M  V30 47 1 16 44
M  V30 48 1 23 45
M  V30 49 1 24 46
M  V30 END BOND
M  V30 END CTAB
M  END
>  <Dataset>  (516) 
OralDrugs

>  <Ligand_Instance>  (516) 
nan

>  <PDB_ID>  (516) 
nan

>  <Standardized_SMILES>  (516) 
C[C@H]1COc2c(N3CCN(C)CC3)c(F)cc3c(=O)c(C(=O)O)cn1c23

>  <Name>  (516) 
Levofloxacin

>  <Pocket>  (516) 
nan

>  <ATP_Site>  (516) 
nan

>  <Peripheral>  (516) 
nan

>  <Num_H_Atoms_ProtBoundConf>  (516) 
nan

>  <Num_Resolved_Atoms>  (516) 
nan

>  <Num_Not_Resolved_Atoms>  (516) 
nan

$$$$
CHEMBL295698
     RDKit          3D

  0  0  0  0  0  0  0  0  0  0999 V3000
M  V30 BEGIN CTAB
M  V30 COUNTS 64 68 0 0 0
M  V30 BEGIN ATOM
M  V30 1 C 5.205463 -1.234022 -0.292380 0
M  V30 2 C 4.910679 -0.652890 -1.625395 0
M  V30 3 O 4.684301 -1.058535 -2.793442 0
M  V30 4 N 4.857384 0.782376 -1.640986 0
M  V30 5 C 4.581131 1.555605 -2.852027 0
M  V30 6 C 3.322081 2.320169 -2.665054 0
M  V30 7 N 2.792588 2.338648 -1.316019 0
M  V30 8 C 1.463799 2.069208 -0.881035 0
M  V30 9 C 1.283037 1.941225 0.479207 0
M  V30 10 C 0.016678 1.683738 0.945286 0
M  V30 11 C -1.098817 1.540764 0.150006 0
M  V30 12 O -2.415755 1.293913 0.266259 0
M  V30 13 C -3.365868 1.037453 1.146730 0
M  V30 14 C -3.472764 -0.192037 1.989961 0 CFG=2
M  V30 15 C -2.296606 -0.648209 2.744595 0
M  V30 16 O -2.516377 -2.012500 2.942233 0
M  V30 17 C -3.161839 -2.388061 1.770753 0 CFG=1
M  V30 18 C -2.176132 -3.147774 0.866405 0
M  V30 19 N -1.005397 -2.433205 0.494467 0
M  V30 20 C 0.145610 -2.478504 1.228716 0
M  V30 21 C 1.069047 -1.722027 0.568188 0
M  V30 22 N 0.492963 -1.231613 -0.536490 0
M  V30 23 C -0.784206 -1.667632 -0.584140 0
M  V30 24 C -4.148771 -3.467298 2.159873 0
M  V30 25 C -4.160833 -4.703937 1.486012 0
M  V30 26 C -5.033221 -5.752426 1.680549 0
M  V30 27 C -6.013057 -5.621529 2.623548 0
M  V30 28 Cl -7.157560 -6.898413 2.930849 0
M  V30 29 C -6.073717 -4.441984 3.332184 0
M  V30 30 C -5.166636 -3.456840 3.073293 0
M  V30 31 Cl -5.316069 -2.081568 4.103408 0
M  V30 32 O -3.685749 -1.302789 1.158448 0
M  V30 33 C -0.871242 1.679706 -1.238564 0
M  V30 34 C 0.410942 1.944656 -1.761646 0
M  V30 35 C 3.928244 2.702210 -0.539321 0
M  V30 36 C 5.053477 1.697077 -0.531065 0
M  V30 37 H 5.311898 -2.340038 -0.343296 0
M  V30 38 H 4.427964 -0.989530 0.457739 0
M  V30 39 H 6.215790 -0.860073 0.043641 0
M  V30 40 H 5.436572 2.275111 -2.981575 0
M  V30 41 H 4.525050 0.897861 -3.740280 0
M  V30 42 H 2.552596 1.852095 -3.309200 0
M  V30 43 H 3.428885 3.370693 -3.060077 0
M  V30 44 H 1.974519 2.005657 1.276495 0
M  V30 45 H -0.267240 1.579888 1.970415 0
M  V30 46 H -3.354009 1.892850 1.930764 0
M  V30 47 H -4.392127 1.256015 0.677606 0
M  V30 48 H -4.303019 -0.046323 2.733135 0
M  V30 49 H -1.327677 -0.411475 2.344953 0
M  V30 50 H -2.334525 -0.112926 3.753333 0
M  V30 51 H -2.797282 -3.381089 -0.042960 0
M  V30 52 H -1.941493 -4.071934 1.456402 0
M  V30 53 H 0.395235 -2.973723 2.153405 0
M  V30 54 H 2.096724 -1.474011 0.768816 0
M  V30 55 H -1.545772 -1.461368 -1.346316 0
M  V30 56 H -3.458432 -5.005630 0.692505 0
M  V30 57 H -5.019496 -6.690228 1.148990 0
M  V30 58 H -6.848562 -4.356005 4.066929 0
M  V30 59 H -1.569355 1.615499 -2.085906 0
M  V30 60 H 0.637625 2.062786 -2.810800 0
M  V30 61 H 3.626611 2.809914 0.521706 0
M  V30 62 H 4.341896 3.710254 -0.840219 0
M  V30 63 H 6.051597 2.188310 -0.576283 0
M  V30 64 H 5.049688 1.079090 0.390387 0
M  V30 END ATOM
M  V30 BEGIN BOND
M  V30 1 1 1 2
M  V30 2 2 2 3
M  V30 3 1 2 4
M  V30 4 1 4 5
M  V30 5 1 5 6
M  V30 6 1 6 7
M  V30 7 1 7 8
M  V30 8 2 8 9
M  V30 9 1 9 10
M  V30 10 2 10 11
M  V30 11 1 11 12
M  V30 12 1 12 13
M  V30 13 1 13 14
M  V30 14 1 14 15
M  V30 15 1 15 16
M  V30 16 1 16 17
M  V30 17 1 17 18 CFG=3
M  V30 18 1 18 19
M  V30 19 1 19 20
M  V30 20 2 20 21
M  V30 21 1 21 22
M  V30 22 2 22 23
M  V30 23 1 17 24
M  V30 24 2 24 25
M  V30 25 1 25 26
M  V30 26 2 26 27
M  V30 27 1 27 28
M  V30 28 1 27 29
M  V30 29 2 29 30
M  V30 30 1 30 31
M  V30 31 1 17 32
M  V30 32 1 11 33
M  V30 33 2 33 34
M  V30 34 1 7 35
M  V30 35 1 35 36
M  V30 36 1 36 4
M  V30 37 1 34 8
M  V30 38 1 32 14
M  V30 39 1 23 19
M  V30 40 1 30 24
M  V30 41 1 1 37
M  V30 42 1 1 38
M  V30 43 1 1 39
M  V30 44 1 5 40
M  V30 45 1 5 41
M  V30 46 1 6 42
M  V30 47 1 6 43
M  V30 48 1 9 44
M  V30 49 1 10 45
M  V30 50 1 13 46
M  V30 51 1 13 47
M  V30 52 1 14 48 CFG=1
M  V30 53 1 15 49
M  V30 54 1 15 50
M  V30 55 1 18 51
M  V30 56 1 18 52
M  V30 57 1 20 53
M  V30 58 1 21 54
M  V30 59 1 23 55
M  V30 60 1 25 56
M  V30 61 1 26 57
M  V30 62 1 29 58
M  V30 63 1 33 59
M  V30 64 1 34 60
M  V30 65 1 35 61
M  V30 66 1 35 62
M  V30 67 1 36 63
M  V30 68 1 36 64
M  V30 END BOND
M  V30 END CTAB
M  END
>  <Dataset>  (517) 
OralDrugs

>  <Ligand_Instance>  (517) 
nan

>  <PDB_ID>  (517) 
nan

>  <Standardized_SMILES>  (517) 
CC(=O)N1CCN(c2ccc(OC[C@@H]3CO[C@@](Cn4ccnc4)(c4ccc(Cl)cc4Cl)O3)cc2)CC1

>  <Name>  (517) 
Levoketoconazole

>  <Pocket>  (517) 
nan

>  <ATP_Site>  (517) 
nan

>  <Peripheral>  (517) 
nan

>  <Num_H_Atoms_ProtBoundConf>  (517) 
nan

>  <Num_Resolved_Atoms>  (517) 
nan

>  <Num_Not_Resolved_Atoms>  (517) 
nan

$$$$
CHEMBL1615371
     RDKit          3D

  0  0  0  0  0  0  0  0  0  0999 V3000
M  V30 BEGIN CTAB
M  V30 COUNTS 58 60 0 0 0
M  V30 BEGIN ATOM
M  V30 1 C 1.961080 -0.110953 2.253505 0
M  V30 2 N 2.330116 1.287663 2.419465 0
M  V30 3 C 3.020131 1.653128 3.609170 0
M  V30 4 C 3.798415 2.814388 3.532395 0
M  V30 5 N 4.468505 3.206986 4.616686 0
M  V30 6 C 4.371911 2.465997 5.756940 0
M  V30 7 N 5.079448 2.871165 6.919916 0
M  V30 8 N 3.615951 1.342249 5.823495 0
M  V30 9 C 2.919735 0.896999 4.767701 0
M  V30 10 O 2.197773 -0.137262 4.757483 0
M  V30 11 N 3.817043 3.499902 2.284919 0
M  V30 12 C 2.770299 3.451372 1.310104 0
M  V30 13 C 1.948024 2.197415 1.326761 0 CFG=2
M  V30 14 C 0.504413 2.571778 1.478056 0
M  V30 15 N -0.431103 1.499054 1.443637 0
M  V30 16 C -0.787945 0.636634 0.394309 0
M  V30 17 C -1.716719 -0.403134 0.539129 0
M  V30 18 C -2.065912 -1.232811 -0.500261 0
M  V30 19 C -1.515442 -1.085071 -1.754185 0
M  V30 20 C -1.869790 -1.952549 -2.871894 0
M  V30 21 O -1.380361 -1.840440 -4.033969 0
M  V30 22 N -2.800338 -3.009715 -2.765235 0
M  V30 23 C -3.240318 -3.930171 -3.762788 0 CFG=1
M  V30 24 C -2.798546 -5.315884 -3.328243 0
M  V30 25 C -3.356575 -5.748472 -2.013304 0
M  V30 26 C -2.813891 -7.125083 -1.757757 0
M  V30 27 O -2.033910 -7.698658 -2.590695 0
M  V30 28 O -3.093202 -7.881808 -0.637554 0
M  V30 29 C -4.705864 -3.877052 -4.001421 0
M  V30 30 O -5.186016 -4.670376 -4.881152 0
M  V30 31 O -6.080519 -3.707956 -4.107347 0
M  V30 32 C -0.595146 -0.077990 -1.956237 0
M  V30 33 C -0.276623 0.728832 -0.883977 0
M  V30 34 H 1.824131 -0.347984 1.178834 0
M  V30 35 H 1.005936 -0.356388 2.741983 0
M  V30 36 H 2.796317 -0.763416 2.586912 0
M  V30 37 H 5.044462 4.072549 4.548130 0
M  V30 38 H 5.951117 2.374362 7.209018 0
M  V30 39 H 4.837862 3.660850 7.588580 0
M  V30 40 H 4.678391 4.075368 2.098435 0
M  V30 41 H 2.129377 4.356567 1.504319 0
M  V30 42 H 3.232707 3.640800 0.306063 0
M  V30 43 H 2.201159 1.641765 0.412948 0
M  V30 44 H 0.210810 3.287533 0.667089 0
M  V30 45 H 0.383411 3.149504 2.414952 0
M  V30 46 H -0.959956 1.295783 2.349413 0
M  V30 47 H -2.171381 -0.549553 1.513866 0
M  V30 48 H -2.786955 -2.003358 -0.296374 0
M  V30 49 H -3.277531 -3.210120 -1.859105 0
M  V30 50 H -2.768964 -3.777005 -4.766670 0
M  V30 51 H -1.697348 -5.238559 -3.211030 0
M  V30 52 H -2.969683 -6.062953 -4.141371 0
M  V30 53 H -2.890406 -5.109159 -1.222554 0
M  V30 54 H -4.440473 -5.805691 -1.941181 0
M  V30 55 H -2.404132 -8.423672 -0.133943 0
M  V30 56 H -6.509523 -2.785624 -3.980783 0
M  V30 57 H -0.173671 0.029047 -2.931605 0
M  V30 58 H 0.444326 1.493327 -1.136311 0
M  V30 END ATOM
M  V30 BEGIN BOND
M  V30 1 1 1 2
M  V30 2 1 2 3
M  V30 3 2 3 4
M  V30 4 1 4 5
M  V30 5 1 5 6
M  V30 6 1 6 7
M  V30 7 2 6 8
M  V30 8 1 8 9
M  V30 9 2 9 10
M  V30 10 1 4 11
M  V30 11 1 11 12
M  V30 12 1 12 13
M  V30 13 1 13 14
M  V30 14 1 14 15
M  V30 15 1 15 16
M  V30 16 2 16 17
M  V30 17 1 17 18
M  V30 18 2 18 19
M  V30 19 1 19 20
M  V30 20 2 20 21
M  V30 21 1 20 22
M  V30 22 1 22 23
M  V30 23 1 23 24
M  V30 24 1 24 25
M  V30 25 1 25 26
M  V30 26 2 26 27
M  V30 27 1 26 28
M  V30 28 1 23 29
M  V30 29 2 29 30
M  V30 30 1 29 31
M  V30 31 1 19 32
M  V30 32 2 32 33
M  V30 33 1 13 2
M  V30 34 1 33 16
M  V30 35 1 9 3
M  V30 36 1 1 34
M  V30 37 1 1 35
M  V30 38 1 1 36
M  V30 39 1 5 37
M  V30 40 1 7 38
M  V30 41 1 7 39
M  V30 42 1 11 40
M  V30 43 1 12 41
M  V30 44 1 12 42
M  V30 45 1 13 43 CFG=3
M  V30 46 1 14 44
M  V30 47 1 14 45
M  V30 48 1 15 46
M  V30 49 1 17 47
M  V30 50 1 18 48
M  V30 51 1 22 49
M  V30 52 1 23 50 CFG=3
M  V30 53 1 24 51
M  V30 54 1 24 52
M  V30 55 1 25 53
M  V30 56 1 25 54
M  V30 57 1 28 55
M  V30 58 1 31 56
M  V30 59 1 32 57
M  V30 60 1 33 58
M  V30 END BOND
M  V30 END CTAB
M  END
>  <Dataset>  (518) 
OralDrugs

>  <Ligand_Instance>  (518) 
nan

>  <PDB_ID>  (518) 
nan

>  <Standardized_SMILES>  (518) 
CN1c2c([nH]c(N)nc2=O)NC[C@@H]1CNc1ccc(C(=O)N[C@@H](CCC(=O)O)C(=O)O)cc1

>  <Name>  (518) 
Levomefolate Calcium

>  <Pocket>  (518) 
nan

>  <ATP_Site>  (518) 
nan

>  <Peripheral>  (518) 
nan

>  <Num_H_Atoms_ProtBoundConf>  (518) 
nan

>  <Num_Resolved_Atoms>  (518) 
nan

>  <Num_Not_Resolved_Atoms>  (518) 
nan

$$$$
CHEMBL99946
     RDKit          3D

  0  0  0  0  0  0  0  0  0  0999 V3000
M  V30 BEGIN CTAB
M  V30 COUNTS 40 41 0 0 0
M  V30 BEGIN ATOM
M  V30 1 C -2.189405 -1.107663 -0.303143 0
M  V30 2 C -1.726917 -1.301315 1.090012 0
M  V30 3 N -0.454586 -1.939034 1.342957 0
M  V30 4 C -0.183123 -3.369578 1.458672 0
M  V30 5 C 0.141534 -3.959627 0.095671 0
M  V30 6 C 0.669136 -1.062846 1.472688 0
M  V30 7 O 1.777840 -1.577872 1.879204 0
M  V30 8 C 0.891044 0.377167 1.240652 0 CFG=1
M  V30 9 C 0.389318 0.891377 -0.092430 0
M  V30 10 C 0.865722 -0.023762 -1.036452 0
M  V30 11 C 0.628012 0.106973 -2.411314 0
M  V30 12 C -0.107737 1.182631 -2.855445 0
M  V30 13 C -0.569597 2.074311 -1.885928 0
M  V30 14 C -0.346343 1.961867 -0.544165 0
M  V30 15 C 0.535238 1.316979 2.372445 0
M  V30 16 C 1.987170 1.120277 1.884228 0 CFG=1
M  V30 17 C 2.843273 0.585083 3.015804 0
M  V30 18 N 2.107466 0.276975 4.205248 0
M  V30 19 H -1.574109 -1.469052 -1.110569 0
M  V30 20 H -3.204252 -1.596309 -0.490382 0
M  V30 21 H -2.455556 -0.009851 -0.413455 0
M  V30 22 H -1.747314 -0.292949 1.673657 0
M  V30 23 H -2.558706 -1.842947 1.644902 0
M  V30 24 H 0.685305 -3.467000 2.141863 0
M  V30 25 H -1.103504 -3.840597 1.833788 0
M  V30 26 H -0.117471 -3.298622 -0.746956 0
M  V30 27 H 1.214346 -4.238575 0.096484 0
M  V30 28 H -0.446433 -4.874697 -0.035642 0
M  V30 29 H 1.469046 -0.929957 -0.907577 0
M  V30 30 H 0.960689 -0.549970 -3.198408 0
M  V30 31 H -0.339448 1.353833 -3.892933 0
M  V30 32 H -1.150692 2.965606 -2.131193 0
M  V30 33 H -0.636447 2.557192 0.276672 0
M  V30 34 H 0.216724 0.910379 3.315224 0
M  V30 35 H 0.101313 2.283387 2.130151 0
M  V30 36 H 2.439317 2.009717 1.347325 0
M  V30 37 H 3.489447 -0.250741 2.713049 0
M  V30 38 H 3.548079 1.411639 3.300405 0
M  V30 39 H 1.409194 -0.437221 4.202805 0
M  V30 40 H 2.745905 0.206348 5.027916 0
M  V30 END ATOM
M  V30 BEGIN BOND
M  V30 1 1 1 2
M  V30 2 1 2 3
M  V30 3 1 3 4
M  V30 4 1 4 5
M  V30 5 1 3 6
M  V30 6 2 6 7
M  V30 7 1 8 6 CFG=1
M  V30 8 1 8 9
M  V30 9 2 9 10
M  V30 10 1 10 11
M  V30 11 2 11 12
M  V30 12 1 12 13
M  V30 13 2 13 14
M  V30 14 1 8 15
M  V30 15 1 15 16
M  V30 16 1 16 17
M  V30 17 1 17 18
M  V30 18 1 16 8
M  V30 19 1 14 9
M  V30 20 1 1 19
M  V30 21 1 1 20
M  V30 22 1 1 21
M  V30 23 1 2 22
M  V30 24 1 2 23
M  V30 25 1 4 24
M  V30 26 1 4 25
M  V30 27 1 5 26
M  V30 28 1 5 27
M  V30 29 1 5 28
M  V30 30 1 10 29
M  V30 31 1 11 30
M  V30 32 1 12 31
M  V30 33 1 13 32
M  V30 34 1 14 33
M  V30 35 1 15 34
M  V30 36 1 15 35
M  V30 37 1 16 36 CFG=3
M  V30 38 1 17 37
M  V30 39 1 17 38
M  V30 40 1 18 39
M  V30 41 1 18 40
M  V30 END BOND
M  V30 END CTAB
M  END
>  <Dataset>  (519) 
OralDrugs

>  <Ligand_Instance>  (519) 
nan

>  <PDB_ID>  (519) 
nan

>  <Standardized_SMILES>  (519) 
CCN(CC)C(=O)[C@@]1(c2ccccc2)C[C@H]1CN

>  <Name>  (519) 
Levomilnacipran

>  <Pocket>  (519) 
nan

>  <ATP_Site>  (519) 
nan

>  <Peripheral>  (519) 
nan

>  <Num_H_Atoms_ProtBoundConf>  (519) 
nan

>  <Num_Resolved_Atoms>  (519) 
nan

>  <Num_Not_Resolved_Atoms>  (519) 
nan

$$$$
CHEMBL1389
     RDKit          3D

  0  0  0  0  0  0  0  0  0  0999 V3000
M  V30 BEGIN CTAB
M  V30 COUNTS 51 54 0 0 0
M  V30 BEGIN ATOM
M  V30 1 C 2.174982 2.998801 1.072840 0
M  V30 2 C 1.304022 2.446310 1.724486 0
M  V30 3 C 0.273376 1.782157 2.521146 0 CFG=2
M  V30 4 O -0.440813 2.654245 3.306190 0
M  V30 5 C 0.963889 0.804949 3.465446 0
M  V30 6 C 0.803534 -0.581640 2.828362 0
M  V30 7 C 0.451411 -0.216782 1.452807 0 CFG=1
M  V30 8 C -0.065133 -1.245462 0.528180 0 CFG=2
M  V30 9 C 0.587286 -2.582495 0.589934 0
M  V30 10 C -0.293271 -3.474007 -0.297780 0
M  V30 11 C -0.136856 -2.953599 -1.676271 0
M  V30 12 C -0.002660 -3.825376 -2.665759 0
M  V30 13 C 0.153980 -3.314088 -4.044798 0
M  V30 14 O -0.346613 -3.956023 -5.005199 0
M  V30 15 C 0.905603 -2.047386 -4.241394 0
M  V30 16 C 0.910122 -1.172354 -3.037206 0
M  V30 17 C -0.124462 -1.529695 -1.988290 0 CFG=2
M  V30 18 C 0.018718 -0.612411 -0.848261 0 CFG=1
M  V30 19 C -1.063120 0.474771 -0.799781 0
M  V30 20 C -0.743885 1.494070 0.244947 0
M  V30 21 C -0.531672 0.910342 1.615397 0 CFG=2
M  V30 22 C -1.790005 0.494161 2.292416 0
M  V30 23 C -2.634461 1.657887 2.671341 0
M  V30 24 H 2.931328 3.466255 0.515574 0
M  V30 25 H -0.271111 2.550185 4.273696 0
M  V30 26 H 0.491491 0.750528 4.452255 0
M  V30 27 H 2.041910 1.075436 3.574553 0
M  V30 28 H 1.832904 -1.038809 2.819851 0
M  V30 29 H 0.136933 -1.239470 3.379433 0
M  V30 30 H 1.361692 0.238063 0.976287 0
M  V30 31 H -1.166745 -1.438647 0.680184 0
M  V30 32 H 1.617053 -2.626868 0.218904 0
M  V30 33 H 0.455646 -2.972199 1.614456 0
M  V30 34 H -0.038374 -4.530424 -0.203117 0
M  V30 35 H -1.346988 -3.299877 0.003171 0
M  V30 36 H -0.001683 -4.916615 -2.513933 0
M  V30 37 H 1.969989 -2.363622 -4.433725 0
M  V30 38 H 0.581544 -1.520427 -5.162507 0
M  V30 39 H 1.886804 -1.121605 -2.533375 0
M  V30 40 H 0.668504 -0.125353 -3.377461 0
M  V30 41 H -1.113050 -1.296921 -2.483124 0
M  V30 42 H 0.970595 -0.018661 -0.907892 0
M  V30 43 H -1.114798 1.013321 -1.770309 0
M  V30 44 H -2.033968 0.000677 -0.546761 0
M  V30 45 H 0.215689 1.992028 -0.051925 0
M  V30 46 H -1.531871 2.270428 0.197803 0
M  V30 47 H -2.409562 -0.207556 1.731995 0
M  V30 48 H -1.496759 -0.026409 3.236218 0
M  V30 49 H -2.595489 1.877965 3.778189 0
M  V30 50 H -3.732522 1.444878 2.510598 0
M  V30 51 H -2.453952 2.585789 2.119594 0
M  V30 END ATOM
M  V30 BEGIN BOND
M  V30 1 3 1 2
M  V30 2 1 3 2 CFG=3
M  V30 3 1 3 4
M  V30 4 1 3 5
M  V30 5 1 5 6
M  V30 6 1 6 7
M  V30 7 1 7 8
M  V30 8 1 8 9
M  V30 9 1 9 10
M  V30 10 1 10 11
M  V30 11 2 11 12
M  V30 12 1 12 13
M  V30 13 2 13 14
M  V30 14 1 13 15
M  V30 15 1 15 16
M  V30 16 1 16 17
M  V30 17 1 17 18
M  V30 18 1 18 19
M  V30 19 1 19 20
M  V30 20 1 20 21
M  V30 21 1 21 22 CFG=1
M  V30 22 1 22 23
M  V30 23 1 21 3
M  V30 24 1 21 7
M  V30 25 1 18 8
M  V30 26 1 17 11
M  V30 27 1 1 24
M  V30 28 1 4 25
M  V30 29 1 5 26
M  V30 30 1 5 27
M  V30 31 1 6 28
M  V30 32 1 6 29
M  V30 33 1 7 30 CFG=3
M  V30 34 1 8 31 CFG=1
M  V30 35 1 9 32
M  V30 36 1 9 33
M  V30 37 1 10 34
M  V30 38 1 10 35
M  V30 39 1 12 36
M  V30 40 1 15 37
M  V30 41 1 15 38
M  V30 42 1 16 39
M  V30 43 1 16 40
M  V30 44 1 17 41 CFG=3
M  V30 45 1 18 42 CFG=3
M  V30 46 1 19 43
M  V30 47 1 19 44
M  V30 48 1 20 45
M  V30 49 1 20 46
M  V30 50 1 22 47
M  V30 51 1 22 48
M  V30 52 1 23 49
M  V30 53 1 23 50
M  V30 54 1 23 51
M  V30 END BOND
M  V30 END CTAB
M  END
>  <Dataset>  (520) 
OralDrugs

>  <Ligand_Instance>  (520) 
nan

>  <PDB_ID>  (520) 
nan

>  <Standardized_SMILES>  (520) 
C#C[C@]1(O)CC[C@H]2[C@@H]3CCC4=CC(=O)CC[C@@H]4[C@H]3CC[C@@]21CC

>  <Name>  (520) 
Levonorgestrel

>  <Pocket>  (520) 
nan

>  <ATP_Site>  (520) 
nan

>  <Peripheral>  (520) 
nan

>  <Num_H_Atoms_ProtBoundConf>  (520) 
nan

>  <Num_Resolved_Atoms>  (520) 
nan

>  <Num_Not_Resolved_Atoms>  (520) 
nan

$$$$
CHEMBL1738990
     RDKit          3D

  0  0  0  0  0  0  0  0  0  0999 V3000
M  V30 BEGIN CTAB
M  V30 COUNTS 54 55 0 0 0
M  V30 BEGIN ATOM
M  V30 1 C 0.694280 3.070271 2.759966 0
M  V30 2 C -0.070316 2.591275 1.540457 0
M  V30 3 C 0.426667 1.247863 1.082243 0
M  V30 4 O 1.354027 0.748432 1.747915 0
M  V30 5 O -0.235726 0.791281 -0.010261 0
M  V30 6 C 0.129129 -0.489388 -0.584797 0 CFG=1
M  V30 7 C -0.090254 -1.496068 0.498548 0
M  V30 8 C -1.469006 -1.602799 1.011231 0
M  V30 9 C -2.397195 -2.444180 0.471965 0
M  V30 10 C -3.692314 -2.644762 0.847426 0
M  V30 11 C -4.163639 -1.909618 1.920730 0
M  V30 12 C -3.291287 -1.024485 2.537879 0
M  V30 13 C -1.998398 -0.894987 2.081173 0
M  V30 14 C -0.855899 -0.798128 -1.656272 0
M  V30 15 C -1.973398 0.032039 -1.810288 0
M  V30 16 C -2.960400 -0.177097 -2.755738 0
M  V30 17 C -2.844569 -1.258893 -3.595200 0
M  V30 18 C -1.725238 -2.052211 -3.408069 0
M  V30 19 C -0.717937 -1.882658 -2.480614 0
M  V30 20 C 1.534065 -0.312609 -1.040650 0 CFG=1
M  V30 21 C 2.203500 -1.465120 -1.710928 0
M  V30 22 C 1.834491 0.961637 -1.741613 0
M  V30 23 N 1.160125 1.290415 -2.924710 0
M  V30 24 C 1.430550 0.580809 -4.119512 0
M  V30 25 C 1.142071 2.709866 -3.198840 0
M  V30 26 H 1.748964 2.679858 2.758847 0
M  V30 27 H 0.231088 2.716654 3.708377 0
M  V30 28 H 0.715090 4.178152 2.814975 0
M  V30 29 H -1.122062 2.432460 1.900458 0
M  V30 30 H -0.121525 3.322193 0.731112 0
M  V30 31 H 0.145015 -2.546966 0.136239 0
M  V30 32 H 0.610347 -1.375902 1.357691 0
M  V30 33 H -2.166241 -3.102686 -0.379727 0
M  V30 34 H -4.413252 -3.312740 0.411263 0
M  V30 35 H -5.156832 -1.974548 2.311063 0
M  V30 36 H -3.656888 -0.440328 3.385977 0
M  V30 37 H -1.399106 -0.191057 2.635959 0
M  V30 38 H -2.087771 0.907393 -1.147049 0
M  V30 39 H -3.809079 0.485209 -2.845062 0
M  V30 40 H -3.569106 -1.486081 -4.352003 0
M  V30 41 H -1.619128 -2.925388 -4.074960 0
M  V30 42 H 0.088994 -2.585864 -2.434475 0
M  V30 43 H 2.158607 -0.216252 -0.055665 0
M  V30 44 H 2.050246 -2.430964 -1.148349 0
M  V30 45 H 2.108088 -1.541259 -2.788235 0
M  V30 46 H 3.328717 -1.307607 -1.562865 0
M  V30 47 H 1.815242 1.851175 -1.058432 0
M  V30 48 H 2.943329 0.906039 -2.009225 0
M  V30 49 H 1.263875 1.243746 -5.028357 0
M  V30 50 H 0.782832 -0.292690 -4.299888 0
M  V30 51 H 2.499420 0.264742 -4.243235 0
M  V30 52 H 0.086628 3.014382 -3.265623 0
M  V30 53 H 1.637059 3.320866 -2.422928 0
M  V30 54 H 1.655613 2.955335 -4.157508 0
M  V30 END ATOM
M  V30 BEGIN BOND
M  V30 1 1 1 2
M  V30 2 1 2 3
M  V30 3 2 3 4
M  V30 4 1 3 5
M  V30 5 1 6 5 CFG=1
M  V30 6 1 6 7
M  V30 7 1 7 8
M  V30 8 2 8 9
M  V30 9 1 9 10
M  V30 10 2 10 11
M  V30 11 1 11 12
M  V30 12 2 12 13
M  V30 13 1 6 14
M  V30 14 2 14 15
M  V30 15 1 15 16
M  V30 16 2 16 17
M  V30 17 1 17 18
M  V30 18 2 18 19
M  V30 19 1 6 20
M  V30 20 1 20 21
M  V30 21 1 20 22
M  V30 22 1 22 23
M  V30 23 1 23 24
M  V30 24 1 23 25
M  V30 25 1 13 8
M  V30 26 1 19 14
M  V30 27 1 1 26
M  V30 28 1 1 27
M  V30 29 1 1 28
M  V30 30 1 2 29
M  V30 31 1 2 30
M  V30 32 1 7 31
M  V30 33 1 7 32
M  V30 34 1 9 33
M  V30 35 1 10 34
M  V30 36 1 11 35
M  V30 37 1 12 36
M  V30 38 1 13 37
M  V30 39 1 15 38
M  V30 40 1 16 39
M  V30 41 1 17 40
M  V30 42 1 18 41
M  V30 43 1 19 42
M  V30 44 1 20 43 CFG=1
M  V30 45 1 21 44
M  V30 46 1 21 45
M  V30 47 1 21 46
M  V30 48 1 22 47
M  V30 49 1 22 48
M  V30 50 1 24 49
M  V30 51 1 24 50
M  V30 52 1 24 51
M  V30 53 1 25 52
M  V30 54 1 25 53
M  V30 55 1 25 54
M  V30 END BOND
M  V30 END CTAB
M  END
>  <Dataset>  (521) 
OralDrugs

>  <Ligand_Instance>  (521) 
nan

>  <PDB_ID>  (521) 
nan

>  <Standardized_SMILES>  (521) 
CCC(=O)O[C@@](Cc1ccccc1)(c1ccccc1)[C@@H](C)CN(C)C

>  <Name>  (521) 
Levopropoxyphene

>  <Pocket>  (521) 
nan

>  <ATP_Site>  (521) 
nan

>  <Peripheral>  (521) 
nan

>  <Num_H_Atoms_ProtBoundConf>  (521) 
nan

>  <Num_Resolved_Atoms>  (521) 
nan

>  <Num_Not_Resolved_Atoms>  (521) 
nan

$$$$
CHEMBL592
     RDKit          3D

  0  0  0  0  0  0  0  0  0  0999 V3000
M  V30 BEGIN CTAB
M  V30 COUNTS 42 45 0 0 0
M  V30 BEGIN ATOM
M  V30 1 C -2.728045 0.296471 2.393943 0
M  V30 2 N -1.784144 0.268958 1.312688 0
M  V30 3 C -1.067159 1.441057 1.071643 0
M  V30 4 C -0.807386 1.865592 -0.327734 0
M  V30 5 C -0.725221 0.656116 -1.237650 0 CFG=2
M  V30 6 C -0.430490 1.003561 -2.650729 0
M  V30 7 C -1.654263 1.075882 -3.527494 0
M  V30 8 C -2.559026 -0.105908 -3.439554 0
M  V30 9 C -2.395779 -0.935325 -2.188314 0
M  V30 10 C -2.052869 -0.012574 -1.070503 0 CFG=1
M  V30 11 C -2.038250 -0.650811 0.287086 0 CFG=1
M  V30 12 C -1.082440 -1.834841 0.284201 0
M  V30 13 C 0.259612 -1.315092 0.003275 0
M  V30 14 C 1.390861 -1.989286 0.450763 0
M  V30 15 C 2.652665 -1.463506 0.163754 0
M  V30 16 C 2.801298 -0.297797 -0.549144 0
M  V30 17 O 4.050524 0.256479 -0.854042 0
M  V30 18 C 1.669929 0.355750 -0.983933 0
M  V30 19 C 0.408172 -0.153550 -0.707057 0
M  V30 20 H -2.722616 1.306497 2.851992 0
M  V30 21 H -3.763484 0.062060 2.075044 0
M  V30 22 H -2.354100 -0.402006 3.180640 0
M  V30 23 H -0.070750 1.348052 1.594556 0
M  V30 24 H -1.566534 2.283056 1.600902 0
M  V30 25 H -1.593105 2.540981 -0.716505 0
M  V30 26 H 0.152763 2.437093 -0.372612 0
M  V30 27 H 0.242202 0.239709 -3.107473 0
M  V30 28 H 0.078536 1.968457 -2.686654 0
M  V30 29 H -2.155294 2.051360 -3.312868 0
M  V30 30 H -1.301118 1.178977 -4.580386 0
M  V30 31 H -3.599185 0.281319 -3.542715 0
M  V30 32 H -2.403270 -0.778347 -4.314248 0
M  V30 33 H -3.397709 -1.369323 -1.982245 0
M  V30 34 H -1.712870 -1.776516 -2.315873 0
M  V30 35 H -2.845767 0.777473 -1.046849 0
M  V30 36 H -3.055857 -1.090689 0.450707 0
M  V30 37 H -1.401339 -2.608734 -0.414797 0
M  V30 38 H -1.107437 -2.263998 1.321088 0
M  V30 39 H 1.300949 -2.912804 1.016367 0
M  V30 40 H 3.543250 -1.979631 0.507075 0
M  V30 41 H 4.200581 0.755442 -1.736634 0
M  V30 42 H 1.804639 1.286532 -1.552720 0
M  V30 END ATOM
M  V30 BEGIN BOND
M  V30 1 1 1 2
M  V30 2 1 2 3
M  V30 3 1 3 4
M  V30 4 1 5 4 CFG=1
M  V30 5 1 5 6
M  V30 6 1 6 7
M  V30 7 1 7 8
M  V30 8 1 8 9
M  V30 9 1 9 10
M  V30 10 1 10 11
M  V30 11 1 11 12
M  V30 12 1 12 13
M  V30 13 2 13 14
M  V30 14 1 14 15
M  V30 15 2 15 16
M  V30 16 1 16 17
M  V30 17 1 16 18
M  V30 18 2 18 19
M  V30 19 1 11 2
M  V30 20 1 19 13
M  V30 21 1 10 5
M  V30 22 1 19 5
M  V30 23 1 1 20
M  V30 24 1 1 21
M  V30 25 1 1 22
M  V30 26 1 3 23
M  V30 27 1 3 24
M  V30 28 1 4 25
M  V30 29 1 4 26
M  V30 30 1 6 27
M  V30 31 1 6 28
M  V30 32 1 7 29
M  V30 33 1 7 30
M  V30 34 1 8 31
M  V30 35 1 8 32
M  V30 36 1 9 33
M  V30 37 1 9 34
M  V30 38 1 10 35 CFG=1
M  V30 39 1 11 36 CFG=1
M  V30 40 1 12 37
M  V30 41 1 12 38
M  V30 42 1 14 39
M  V30 43 1 15 40
M  V30 44 1 17 41
M  V30 45 1 18 42
M  V30 END BOND
M  V30 END CTAB
M  END
>  <Dataset>  (522) 
OralDrugs

>  <Ligand_Instance>  (522) 
nan

>  <PDB_ID>  (522) 
nan

>  <Standardized_SMILES>  (522) 
CN1CC[C@]23CCCC[C@H]2[C@H]1Cc1ccc(O)cc13

>  <Name>  (522) 
Levorphanol

>  <Pocket>  (522) 
nan

>  <ATP_Site>  (522) 
nan

>  <Peripheral>  (522) 
nan

>  <Num_H_Atoms_ProtBoundConf>  (522) 
nan

>  <Num_Resolved_Atoms>  (522) 
nan

>  <Num_Not_Resolved_Atoms>  (522) 
nan

$$$$
CHEMBL1624
     RDKit          3D

  0  0  0  0  0  0  0  0  0  0999 V3000
M  V30 BEGIN CTAB
M  V30 COUNTS 35 36 0 0 0
M  V30 BEGIN ATOM
M  V30 1 N -0.463372 -4.952550 3.773910 0
M  V30 2 C -0.690445 -4.067669 2.621501 0 CFG=1
M  V30 3 C 0.251722 -2.907774 2.812466 0
M  V30 4 C 0.086376 -1.964769 1.683877 0
M  V30 5 C 0.773646 -1.896472 0.481024 0
M  V30 6 C 0.464535 -0.942482 -0.449506 0
M  V30 7 I 1.652293 -1.050131 -2.196042 0
M  V30 8 C -0.530715 -0.013370 -0.243095 0
M  V30 9 O -0.749109 0.914497 -1.279481 0
M  V30 10 C -0.031604 2.118157 -1.257907 0
M  V30 11 C -0.236189 3.033029 -2.265808 0
M  V30 12 C 0.485060 4.230956 -2.234646 0
M  V30 13 I 0.240316 5.692701 -3.732995 0
M  V30 14 C 1.391626 4.490791 -1.203352 0
M  V30 15 O 2.091739 5.708359 -1.216714 0
M  V30 16 C 1.588298 3.559437 -0.192991 0
M  V30 17 I 2.938002 3.925944 1.360222 0
M  V30 18 C 0.872623 2.380904 -0.232045 0
M  V30 19 C -1.235213 -0.043872 0.931407 0
M  V30 20 I -2.750995 1.377195 1.235832 0
M  V30 21 C -0.913921 -1.006254 1.854564 0
M  V30 22 C -0.434525 -4.770533 1.353585 0
M  V30 23 O -0.673537 -4.216882 0.226006 0
M  V30 24 O -0.148596 -5.541905 0.242987 0
M  V30 25 H -0.882150 -4.447102 4.581782 0
M  V30 26 H -1.084066 -5.787445 3.619147 0
M  V30 27 H -1.750846 -3.768076 2.687477 0
M  V30 28 H 1.315242 -3.243938 2.797634 0
M  V30 29 H 0.071444 -2.374962 3.766183 0
M  V30 30 H 1.551688 -2.662632 0.392772 0
M  V30 31 H -0.923200 2.887160 -3.087872 0
M  V30 32 H 1.892205 6.315377 -0.413934 0
M  V30 33 H 0.971730 1.603402 0.522015 0
M  V30 34 H -1.518752 -0.968529 2.767195 0
M  V30 35 H 0.272851 -6.482015 0.324089 0
M  V30 END ATOM
M  V30 BEGIN BOND
M  V30 1 1 1 2
M  V30 2 1 2 3
M  V30 3 1 3 4
M  V30 4 2 4 5
M  V30 5 1 5 6
M  V30 6 1 6 7
M  V30 7 2 6 8
M  V30 8 1 8 9
M  V30 9 1 9 10
M  V30 10 2 10 11
M  V30 11 1 11 12
M  V30 12 1 12 13
M  V30 13 2 12 14
M  V30 14 1 14 15
M  V30 15 1 14 16
M  V30 16 1 16 17
M  V30 17 2 16 18
M  V30 18 1 8 19
M  V30 19 1 19 20
M  V30 20 2 19 21
M  V30 21 1 2 22
M  V30 22 2 22 23
M  V30 23 1 22 24
M  V30 24 1 21 4
M  V30 25 1 18 10
M  V30 26 1 1 25
M  V30 27 1 1 26
M  V30 28 1 2 27 CFG=3
M  V30 29 1 3 28
M  V30 30 1 3 29
M  V30 31 1 5 30
M  V30 32 1 11 31
M  V30 33 1 15 32
M  V30 34 1 18 33
M  V30 35 1 21 34
M  V30 36 1 24 35
M  V30 END BOND
M  V30 END CTAB
M  END
>  <Dataset>  (523) 
OralDrugs

>  <Ligand_Instance>  (523) 
nan

>  <PDB_ID>  (523) 
nan

>  <Standardized_SMILES>  (523) 
N[C@@H](Cc1cc(I)c(Oc2cc(I)c(O)c(I)c2)c(I)c1)C(=O)O

>  <Name>  (523) 
Levothyroxine

>  <Pocket>  (523) 
nan

>  <ATP_Site>  (523) 
nan

>  <Peripheral>  (523) 
nan

>  <Num_H_Atoms_ProtBoundConf>  (523) 
nan

>  <Num_Resolved_Atoms>  (523) 
nan

>  <Num_Not_Resolved_Atoms>  (523) 
nan

$$$$
CHEMBL79
     RDKit          3D

  0  0  0  0  0  0  0  0  0  0999 V3000
M  V30 BEGIN CTAB
M  V30 COUNTS 39 39 0 0 0
M  V30 BEGIN ATOM
M  V30 1 C -0.615149 -2.208921 3.040209 0
M  V30 2 C -1.092061 -2.991688 1.859740 0
M  V30 3 N -0.197234 -3.031736 0.801348 0
M  V30 4 C -0.578332 -3.789303 -0.345664 0
M  V30 5 C -1.744600 -3.144581 -1.065797 0
M  V30 6 C 1.065494 -2.436526 0.807374 0
M  V30 7 C 0.990417 -0.954985 0.798872 0
M  V30 8 O 2.179302 -0.508071 0.806162 0
M  V30 9 N -0.025828 0.051473 0.783690 0
M  V30 10 C 0.626474 1.298924 0.781590 0
M  V30 11 C 0.909642 1.772380 -0.498986 0
M  V30 12 C 0.562979 1.042109 -1.758449 0
M  V30 13 C 1.548315 2.982228 -0.698759 0
M  V30 14 C 1.877137 3.671217 0.449605 0
M  V30 15 C 1.618009 3.243925 1.733164 0
M  V30 16 C 0.979518 2.032973 1.894502 0
M  V30 17 C 0.654389 1.487429 3.235688 0
M  V30 18 H -0.682234 -2.790592 3.994124 0
M  V30 19 H -1.252000 -1.286241 3.203910 0
M  V30 20 H 0.411417 -1.835209 2.953346 0
M  V30 21 H -1.407099 -3.999445 2.253011 0
M  V30 22 H -2.044052 -2.481301 1.485560 0
M  V30 23 H 0.291876 -3.741318 -1.060389 0
M  V30 24 H -0.788428 -4.859400 -0.157759 0
M  V30 25 H -2.613293 -2.973093 -0.411351 0
M  V30 26 H -1.983467 -3.785027 -1.946846 0
M  V30 27 H -1.455304 -2.165626 -1.497625 0
M  V30 28 H 1.712651 -2.789029 -0.056647 0
M  V30 29 H 1.664587 -2.724130 1.719390 0
M  V30 30 H -0.955490 -0.459337 0.778033 0
M  V30 31 H -0.152851 0.201304 -1.563971 0
M  V30 32 H 1.432229 0.756131 -2.354141 0
M  V30 33 H -0.049899 1.784701 -2.342521 0
M  V30 34 H 1.806023 3.424485 -1.649932 0
M  V30 35 H 2.380079 4.628396 0.386086 0
M  V30 36 H 1.900057 3.828650 2.609683 0
M  V30 37 H 1.470061 0.852860 3.639708 0
M  V30 38 H -0.275878 0.885720 3.248802 0
M  V30 39 H 0.419506 2.369847 3.891354 0
M  V30 END ATOM
M  V30 BEGIN BOND
M  V30 1 1 1 2
M  V30 2 1 2 3
M  V30 3 1 3 4
M  V30 4 1 4 5
M  V30 5 1 3 6
M  V30 6 1 6 7
M  V30 7 2 7 8
M  V30 8 1 7 9
M  V30 9 1 9 10
M  V30 10 2 10 11
M  V30 11 1 11 12
M  V30 12 1 11 13
M  V30 13 2 13 14
M  V30 14 1 14 15
M  V30 15 2 15 16
M  V30 16 1 16 17
M  V30 17 1 16 10
M  V30 18 1 1 18
M  V30 19 1 1 19
M  V30 20 1 1 20
M  V30 21 1 2 21
M  V30 22 1 2 22
M  V30 23 1 4 23
M  V30 24 1 4 24
M  V30 25 1 5 25
M  V30 26 1 5 26
M  V30 27 1 5 27
M  V30 28 1 6 28
M  V30 29 1 6 29
M  V30 30 1 9 30
M  V30 31 1 12 31
M  V30 32 1 12 32
M  V30 33 1 12 33
M  V30 34 1 13 34
M  V30 35 1 14 35
M  V30 36 1 15 36
M  V30 37 1 17 37
M  V30 38 1 17 38
M  V30 39 1 17 39
M  V30 END BOND
M  V30 END CTAB
M  END
>  <Dataset>  (524) 
OralDrugs

>  <Ligand_Instance>  (524) 
nan

>  <PDB_ID>  (524) 
nan

>  <Standardized_SMILES>  (524) 
CCN(CC)CC(=O)Nc1c(C)cccc1C

>  <Name>  (524) 
Lidocaine

>  <Pocket>  (524) 
nan

>  <ATP_Site>  (524) 
nan

>  <Peripheral>  (524) 
nan

>  <Num_H_Atoms_ProtBoundConf>  (524) 
nan

>  <Num_Resolved_Atoms>  (524) 
nan

>  <Num_Not_Resolved_Atoms>  (524) 
nan

$$$$
CHEMBL237500
     RDKit          3D

  0  0  0  0  0  0  0  0  0  0999 V3000
M  V30 BEGIN CTAB
M  V30 COUNTS 63 67 0 0 0
M  V30 BEGIN ATOM
M  V30 1 C 2.818658 1.375972 5.529427 0
M  V30 2 C 2.593006 0.711652 4.253677 0
M  V30 3 C 2.423434 0.165685 3.208795 0
M  V30 4 C 2.225652 -0.506154 1.909426 0
M  V30 5 N 1.189985 0.188605 1.170556 0
M  V30 6 C 1.453208 1.206466 0.334740 0
M  V30 7 N 2.664636 1.850584 -0.048519 0
M  V30 8 C 3.355363 3.003063 0.516284 0
M  V30 9 C 4.008782 3.847766 -0.521715 0
M  V30 10 C 3.380656 3.741686 -1.883263 0
M  V30 11 C 3.058179 2.351188 -2.296982 0 CFG=1
M  V30 12 N 3.711068 2.012432 -3.534539 0
M  V30 13 C 3.424931 1.339618 -1.201736 0
M  V30 14 N 0.288219 1.645048 -0.202674 0
M  V30 15 C -0.727367 0.920584 0.277385 0
M  V30 16 C -0.144730 0.009752 1.138748 0
M  V30 17 C -0.920349 -0.908810 1.818523 0
M  V30 18 O -0.429791 -1.736760 2.596052 0
M  V30 19 N -2.242177 -0.850380 1.585275 0
M  V30 20 C -3.171655 -1.766279 2.241309 0
M  V30 21 C -3.384099 -3.013535 1.446468 0
M  V30 22 N -4.386473 -3.039739 0.537150 0
M  V30 23 C -4.630091 -4.131460 -0.209649 0
M  V30 24 C -5.703456 -4.252445 -1.228244 0
M  V30 25 C -3.800141 -5.200590 0.014757 0
M  V30 26 C -4.001296 -6.359874 -0.727052 0
M  V30 27 C -3.189251 -7.454296 -0.531117 0
M  V30 28 C -2.151316 -7.439670 0.404358 0
M  V30 29 C -1.935842 -6.282578 1.157883 0
M  V30 30 C -2.764151 -5.228133 0.928015 0
M  V30 31 N -2.584566 -4.080106 1.644822 0
M  V30 32 C -2.797458 0.054221 0.733117 0
M  V30 33 O -4.045928 0.106848 0.515105 0
M  V30 34 N -2.048001 0.969156 0.052803 0
M  V30 35 C -2.671633 1.917337 -0.846095 0
M  V30 36 H 1.992995 2.073924 5.772575 0
M  V30 37 H 2.931831 0.708841 6.387472 0
M  V30 38 H 3.735530 2.020076 5.451560 0
M  V30 39 H 3.187903 -0.448965 1.366282 0
M  V30 40 H 1.919739 -1.572711 2.091254 0
M  V30 41 H 4.139728 2.605833 1.200270 0
M  V30 42 H 2.652588 3.648048 1.083533 0
M  V30 43 H 4.081238 4.895463 -0.167549 0
M  V30 44 H 5.057081 3.502970 -0.641118 0
M  V30 45 H 4.012336 4.230034 -2.645418 0
M  V30 46 H 2.428569 4.327757 -1.852971 0
M  V30 47 H 1.953001 2.197413 -2.456342 0
M  V30 48 H 3.175760 1.267708 -4.002807 0
M  V30 49 H 4.726308 1.814757 -3.448220 0
M  V30 50 H 3.091672 0.351882 -1.511483 0
M  V30 51 H 4.500786 1.298707 -1.005861 0
M  V30 52 H -4.165466 -1.283661 2.345952 0
M  V30 53 H -2.831604 -2.018732 3.267789 0
M  V30 54 H -6.332395 -3.340076 -1.261790 0
M  V30 55 H -5.279021 -4.353789 -2.259069 0
M  V30 56 H -6.347903 -5.121626 -1.044619 0
M  V30 57 H -4.783308 -6.469310 -1.479693 0
M  V30 58 H -3.348980 -8.361446 -1.113602 0
M  V30 59 H -1.516550 -8.302433 0.554259 0
M  V30 60 H -1.130789 -6.230102 1.903361 0
M  V30 61 H -1.945768 2.742518 -1.033243 0
M  V30 62 H -3.592217 2.347019 -0.450756 0
M  V30 63 H -2.834534 1.370481 -1.812563 0
M  V30 END ATOM
M  V30 BEGIN BOND
M  V30 1 1 1 2
M  V30 2 3 2 3
M  V30 3 1 3 4
M  V30 4 1 4 5
M  V30 5 1 5 6
M  V30 6 1 6 7
M  V30 7 1 7 8
M  V30 8 1 8 9
M  V30 9 1 9 10
M  V30 10 1 10 11
M  V30 11 1 11 12
M  V30 12 1 11 13
M  V30 13 2 6 14
M  V30 14 1 14 15
M  V30 15 2 15 16
M  V30 16 1 16 17
M  V30 17 2 17 18
M  V30 18 1 17 19
M  V30 19 1 19 20
M  V30 20 1 20 21
M  V30 21 2 21 22
M  V30 22 1 22 23
M  V30 23 1 23 24
M  V30 24 2 23 25
M  V30 25 1 25 26
M  V30 26 2 26 27
M  V30 27 1 27 28
M  V30 28 2 28 29
M  V30 29 1 29 30
M  V30 30 2 30 31
M  V30 31 1 19 32
M  V30 32 2 32 33
M  V30 33 1 32 34
M  V30 34 1 34 35
M  V30 35 1 16 5
M  V30 36 1 31 21
M  V30 37 1 13 7
M  V30 38 1 34 15
M  V30 39 1 30 25
M  V30 40 1 1 36
M  V30 41 1 1 37
M  V30 42 1 1 38
M  V30 43 1 4 39
M  V30 44 1 4 40
M  V30 45 1 8 41
M  V30 46 1 8 42
M  V30 47 1 9 43
M  V30 48 1 9 44
M  V30 49 1 10 45
M  V30 50 1 10 46
M  V30 51 1 11 47 CFG=3
M  V30 52 1 12 48
M  V30 53 1 12 49
M  V30 54 1 13 50
M  V30 55 1 13 51
M  V30 56 1 20 52
M  V30 57 1 20 53
M  V30 58 1 24 54
M  V30 59 1 24 55
M  V30 60 1 24 56
M  V30 61 1 26 57
M  V30 62 1 27 58
M  V30 63 1 28 59
M  V30 64 1 29 60
M  V30 65 1 35 61
M  V30 66 1 35 62
M  V30 67 1 35 63
M  V30 END BOND
M  V30 END CTAB
M  END
>  <Dataset>  (525) 
OralDrugs

>  <Ligand_Instance>  (525) 
nan

>  <PDB_ID>  (525) 
nan

>  <Standardized_SMILES>  (525) 
CC#CCn1c(N2CCC[C@@H](N)C2)nc2c1c(=O)n(Cc1nc(C)c3ccccc3n1)c(=O)n2C

>  <Name>  (525) 
Linagliptin

>  <Pocket>  (525) 
nan

>  <ATP_Site>  (525) 
nan

>  <Peripheral>  (525) 
nan

>  <Num_H_Atoms_ProtBoundConf>  (525) 
nan

>  <Num_Resolved_Atoms>  (525) 
nan

>  <Num_Not_Resolved_Atoms>  (525) 
nan

$$$$
CHEMBL1447
     RDKit          3D

  0  0  0  0  0  0  0  0  0  0999 V3000
M  V30 BEGIN CTAB
M  V30 COUNTS 61 62 0 0 0
M  V30 BEGIN ATOM
M  V30 1 C -1.479201 -5.742822 4.648647 0
M  V30 2 C -0.960238 -6.044377 3.293003 0
M  V30 3 C 0.052702 -5.136024 2.705302 0
M  V30 4 C -0.407326 -3.740609 2.518281 0 CFG=2
M  V30 5 C 0.670358 -2.864440 1.879833 0
M  V30 6 C 0.195226 -1.495697 2.287438 0 CFG=1
M  V30 7 C -0.775451 -0.917028 1.338692 0
M  V30 8 O -1.993081 -0.532115 1.375025 0
M  V30 9 N -0.240175 -0.724510 0.021488 0
M  V30 10 C -0.976156 -0.160165 -1.147521 0 CFG=1
M  V30 11 C -0.283786 1.101501 -1.526032 0 CFG=1
M  V30 12 O 1.028687 0.882946 -1.905972 0
M  V30 13 C 1.718678 1.996572 -2.269033 0 CFG=2
M  V30 14 S 3.405164 1.885028 -1.629084 0
M  V30 15 C 3.445395 1.931787 0.172069 0
M  V30 16 C 1.092704 3.306090 -1.878353 0 CFG=2
M  V30 17 O 1.319760 3.664007 -0.554337 0
M  V30 18 C -0.356976 3.396496 -2.238628 0 CFG=1
M  V30 19 O -0.599499 4.256458 -3.295548 0
M  V30 20 C -0.950696 1.992965 -2.499398 0 CFG=1
M  V30 21 O -0.669365 1.743485 -3.835731 0
M  V30 22 C -1.071366 -1.206306 -2.211681 0 CFG=1
M  V30 23 C -1.972649 -0.891893 -3.362764 0
M  V30 24 O 0.165014 -1.633785 -2.684548 0
M  V30 25 N -0.465108 -1.634059 3.548929 0
M  V30 26 C 0.066245 -0.820330 4.607069 0
M  V30 27 C -0.494483 -3.054172 3.881982 0
M  V30 28 H -0.780559 -5.247356 5.330630 0
M  V30 29 H -1.663015 -6.752668 5.151941 0
M  V30 30 H -2.506586 -5.302801 4.623621 0
M  V30 31 H -1.859484 -6.070838 2.600878 0
M  V30 32 H -0.613417 -7.115315 3.262951 0
M  V30 33 H 0.994247 -5.169096 3.339268 0
M  V30 34 H 0.396562 -5.616914 1.749126 0
M  V30 35 H -1.324386 -3.683038 1.939020 0
M  V30 36 H 0.791526 -3.023574 0.812181 0
M  V30 37 H 1.619382 -3.117885 2.393519 0
M  V30 38 H 1.092575 -0.838740 2.372667 0
M  V30 39 H 0.715915 -0.926608 -0.368215 0
M  V30 40 H -1.987254 0.072158 -0.780661 0
M  V30 41 H -0.215947 1.697288 -0.555234 0
M  V30 42 H 1.802758 2.003475 -3.392885 0
M  V30 43 H 4.489310 1.688290 0.491191 0
M  V30 44 H 3.207851 2.913127 0.602184 0
M  V30 45 H 2.817066 1.094447 0.583602 0
M  V30 46 H 1.630941 4.083267 -2.490622 0
M  V30 47 H 0.492698 4.058430 -0.210766 0
M  V30 48 H -0.927322 3.783915 -1.366338 0
M  V30 49 H -1.528486 4.626299 -3.223139 0
M  V30 50 H -2.045392 2.048451 -2.311827 0
M  V30 51 H -0.550229 2.546188 -4.377243 0
M  V30 52 H -1.506256 -2.120521 -1.682550 0
M  V30 53 H -2.652619 -0.037094 -3.216997 0
M  V30 54 H -2.681326 -1.756374 -3.576294 0
M  V30 55 H -1.390998 -0.826828 -4.329839 0
M  V30 56 H 0.100799 -1.877419 -3.658163 0
M  V30 57 H 0.496075 -1.427158 5.436526 0
M  V30 58 H 0.917087 -0.230780 4.180802 0
M  V30 59 H -0.672413 -0.126514 5.022381 0
M  V30 60 H -1.486694 -3.219818 4.325075 0
M  V30 61 H 0.335403 -3.347615 4.519511 0
M  V30 END ATOM
M  V30 BEGIN BOND
M  V30 1 1 1 2
M  V30 2 1 2 3
M  V30 3 1 3 4
M  V30 4 1 4 5
M  V30 5 1 5 6
M  V30 6 1 6 7
M  V30 7 2 7 8
M  V30 8 1 7 9
M  V30 9 1 9 10
M  V30 10 1 10 11
M  V30 11 1 11 12
M  V30 12 1 12 13
M  V30 13 1 13 14
M  V30 14 1 14 15
M  V30 15 1 13 16
M  V30 16 1 16 17
M  V30 17 1 16 18
M  V30 18 1 18 19
M  V30 19 1 18 20
M  V30 20 1 20 21
M  V30 21 1 10 22
M  V30 22 1 22 23
M  V30 23 1 22 24
M  V30 24 1 6 25
M  V30 25 1 25 26
M  V30 26 1 25 27
M  V30 27 1 27 4
M  V30 28 1 20 11
M  V30 29 1 1 28
M  V30 30 1 1 29
M  V30 31 1 1 30
M  V30 32 1 2 31
M  V30 33 1 2 32
M  V30 34 1 3 33
M  V30 35 1 3 34
M  V30 36 1 4 35 CFG=3
M  V30 37 1 5 36
M  V30 38 1 5 37
M  V30 39 1 6 38 CFG=1
M  V30 40 1 9 39
M  V30 41 1 10 40 CFG=1
M  V30 42 1 11 41 CFG=1
M  V30 43 1 13 42 CFG=3
M  V30 44 1 15 43
M  V30 45 1 15 44
M  V30 46 1 15 45
M  V30 47 1 16 46 CFG=3
M  V30 48 1 17 47
M  V30 49 1 18 48 CFG=1
M  V30 50 1 19 49
M  V30 51 1 20 50 CFG=3
M  V30 52 1 21 51
M  V30 53 1 22 52 CFG=1
M  V30 54 1 23 53
M  V30 55 1 23 54
M  V30 56 1 23 55
M  V30 57 1 24 56
M  V30 58 1 26 57
M  V30 59 1 26 58
M  V30 60 1 26 59
M  V30 61 1 27 60
M  V30 62 1 27 61
M  V30 END BOND
M  V30 END CTAB
M  END
>  <Dataset>  (526) 
OralDrugs

>  <Ligand_Instance>  (526) 
nan

>  <PDB_ID>  (526) 
nan

>  <Standardized_SMILES>  (526) 
CCC[C@@H]1C[C@@H](C(=O)N[C@@H]([C@H]2O[C@H](SC)[C@H](O)[C@@H](O)[C@H]2O)[C@@H](C)O)N(C)C1

>  <Name>  (526) 
Lincomycin

>  <Pocket>  (526) 
nan

>  <ATP_Site>  (526) 
nan

>  <Peripheral>  (526) 
nan

>  <Num_H_Atoms_ProtBoundConf>  (526) 
nan

>  <Num_Resolved_Atoms>  (526) 
nan

>  <Num_Not_Resolved_Atoms>  (526) 
nan

$$$$
CHEMBL126
     RDKit          3D

  0  0  0  0  0  0  0  0  0  0999 V3000
M  V30 BEGIN CTAB
M  V30 COUNTS 44 46 0 0 0
M  V30 BEGIN ATOM
M  V30 1 C -4.949203 -5.403079 1.738393 0
M  V30 2 C -3.874324 -4.724845 0.931160 0
M  V30 3 O -2.668101 -4.878242 1.294336 0
M  V30 4 N -4.273450 -3.950317 -0.193357 0
M  V30 5 C -3.293015 -3.269287 -1.016150 0
M  V30 6 C -2.527184 -2.294280 -0.174267 0 CFG=1
M  V30 7 C -1.604565 -1.411251 -1.020563 0
M  V30 8 N -1.314262 -0.387081 -0.035913 0
M  V30 9 C -0.071346 0.254093 0.220431 0
M  V30 10 C 0.129795 1.210634 1.190381 0
M  V30 11 C 1.359610 1.805168 1.397026 0
M  V30 12 C 2.463935 1.476616 0.642933 0
M  V30 13 N 3.692833 2.127017 0.938413 0
M  V30 14 C 3.843255 3.255512 1.829435 0
M  V30 15 C 4.752926 2.798523 2.978361 0
M  V30 16 O 6.043615 2.778771 2.397364 0
M  V30 17 C 6.047105 1.673566 1.567005 0
M  V30 18 C 5.024378 1.827793 0.459987 0
M  V30 19 C 2.234785 0.518991 -0.318483 0
M  V30 20 F 3.251339 0.140447 -1.110052 0
M  V30 21 C 1.022330 -0.089755 -0.546579 0
M  V30 22 C -2.570150 -0.182790 0.609859 0
M  V30 23 O -2.932348 0.835896 1.253535 0
M  V30 24 O -3.357856 -1.311683 0.415664 0
M  V30 25 H -5.568103 -4.652374 2.289358 0
M  V30 26 H -5.601774 -5.937727 1.024910 0
M  V30 27 H -4.526334 -6.157277 2.421137 0
M  V30 28 H -5.304369 -3.883553 -0.414530 0
M  V30 29 H -2.583510 -4.052455 -1.354690 0
M  V30 30 H -3.746761 -2.845677 -1.904900 0
M  V30 31 H -1.880046 -2.805946 0.547890 0
M  V30 32 H -2.207646 -0.911476 -1.825527 0
M  V30 33 H -0.751560 -1.954843 -1.405069 0
M  V30 34 H -0.762626 1.441522 1.763747 0
M  V30 35 H 1.290261 2.516278 2.201930 0
M  V30 36 H 2.899502 3.617615 2.261531 0
M  V30 37 H 4.355893 4.073617 1.246167 0
M  V30 38 H 4.506153 1.742052 3.211732 0
M  V30 39 H 4.694522 3.474210 3.830044 0
M  V30 40 H 5.789312 0.728655 2.129323 0
M  V30 41 H 7.009022 1.494655 1.076131 0
M  V30 42 H 5.382014 2.599829 -0.266894 0
M  V30 43 H 5.050280 0.869146 -0.087895 0
M  V30 44 H 0.923552 -0.827486 -1.315726 0
M  V30 END ATOM
M  V30 BEGIN BOND
M  V30 1 1 1 2
M  V30 2 2 2 3
M  V30 3 1 2 4
M  V30 4 1 4 5
M  V30 5 1 5 6
M  V30 6 1 6 7
M  V30 7 1 7 8
M  V30 8 1 8 9
M  V30 9 2 9 10
M  V30 10 1 10 11
M  V30 11 2 11 12
M  V30 12 1 12 13
M  V30 13 1 13 14
M  V30 14 1 14 15
M  V30 15 1 15 16
M  V30 16 1 16 17
M  V30 17 1 17 18
M  V30 18 1 12 19
M  V30 19 1 19 20
M  V30 20 2 19 21
M  V30 21 1 8 22
M  V30 22 2 22 23
M  V30 23 1 22 24
M  V30 24 1 24 6
M  V30 25 1 21 9
M  V30 26 1 18 13
M  V30 27 1 1 25
M  V30 28 1 1 26
M  V30 29 1 1 27
M  V30 30 1 4 28
M  V30 31 1 5 29
M  V30 32 1 5 30
M  V30 33 1 6 31 CFG=1
M  V30 34 1 7 32
M  V30 35 1 7 33
M  V30 36 1 10 34
M  V30 37 1 11 35
M  V30 38 1 14 36
M  V30 39 1 14 37
M  V30 40 1 15 38
M  V30 41 1 15 39
M  V30 42 1 17 40
M  V30 43 1 17 41
M  V30 44 1 18 42
M  V30 45 1 18 43
M  V30 46 1 21 44
M  V30 END BOND
M  V30 END CTAB
M  END
>  <Dataset>  (527) 
OralDrugs

>  <Ligand_Instance>  (527) 
nan

>  <PDB_ID>  (527) 
nan

>  <Standardized_SMILES>  (527) 
CC(=O)NC[C@H]1CN(c2ccc(N3CCOCC3)c(F)c2)C(=O)O1

>  <Name>  (527) 
Linezolid

>  <Pocket>  (527) 
nan

>  <ATP_Site>  (527) 
nan

>  <Peripheral>  (527) 
nan

>  <Num_H_Atoms_ProtBoundConf>  (527) 
nan

>  <Num_Resolved_Atoms>  (527) 
nan

>  <Num_Not_Resolved_Atoms>  (527) 
nan

$$$$
CHEMBL1544
     RDKit          3D

  0  0  0  0  0  0  0  0  0  0999 V3000
M  V30 BEGIN CTAB
M  V30 COUNTS 35 36 0 0 0
M  V30 BEGIN ATOM
M  V30 1 N -1.500032 -2.781795 3.222065 0
M  V30 2 C -0.131144 -2.895462 3.667222 0 CFG=1
M  V30 3 C 0.789929 -3.391637 2.610408 0
M  V30 4 C 0.880324 -2.572094 1.402656 0
M  V30 5 C 1.837662 -1.551783 1.335412 0
M  V30 6 C 2.006037 -0.725391 0.248716 0
M  V30 7 I 3.455202 0.787748 0.198988 0
M  V30 8 C 1.178807 -0.919003 -0.836264 0
M  V30 9 O 1.286148 -0.120384 -1.980694 0
M  V30 10 C 0.501738 1.046471 -1.999216 0
M  V30 11 C 0.566082 1.881076 -3.110437 0
M  V30 12 C -0.187516 3.048771 -3.184138 0
M  V30 13 C -1.013816 3.396886 -2.149894 0
M  V30 14 O -1.772007 4.548337 -2.196136 0
M  V30 15 C -1.070066 2.566157 -1.057482 0
M  V30 16 I -2.300314 2.985799 0.600190 0
M  V30 17 C -0.335809 1.412905 -0.967107 0
M  V30 18 C 0.200254 -1.912448 -0.849673 0
M  V30 19 I -1.052136 -2.188559 -2.520434 0
M  V30 20 C 0.099416 -2.697125 0.282506 0
M  V30 21 C 0.347627 -1.669146 4.346767 0
M  V30 22 O -0.782408 -1.095167 4.177853 0
M  V30 23 O 0.831017 -0.516041 4.997682 0
M  V30 24 H -1.730699 -3.365618 2.413616 0
M  V30 25 H -2.188458 -2.811014 3.996143 0
M  V30 26 H -0.152499 -3.684911 4.460236 0
M  V30 27 H 0.536366 -4.452357 2.412255 0
M  V30 28 H 1.817862 -3.422663 3.072253 0
M  V30 29 H 2.525669 -1.345776 2.162944 0
M  V30 30 H 1.200101 1.658232 -3.956979 0
M  V30 31 H -0.165937 3.721888 -4.027162 0
M  V30 32 H -2.299311 4.851145 -1.380222 0
M  V30 33 H -0.338209 0.716849 -0.130198 0
M  V30 34 H -0.649723 -3.458513 0.273387 0
M  V30 35 H 1.504004 0.083169 4.494030 0
M  V30 END ATOM
M  V30 BEGIN BOND
M  V30 1 1 1 2
M  V30 2 1 2 3
M  V30 3 1 3 4
M  V30 4 2 4 5
M  V30 5 1 5 6
M  V30 6 1 6 7
M  V30 7 2 6 8
M  V30 8 1 8 9
M  V30 9 1 9 10
M  V30 10 2 10 11
M  V30 11 1 11 12
M  V30 12 2 12 13
M  V30 13 1 13 14
M  V30 14 1 13 15
M  V30 15 1 15 16
M  V30 16 2 15 17
M  V30 17 1 8 18
M  V30 18 1 18 19
M  V30 19 2 18 20
M  V30 20 1 2 21
M  V30 21 2 21 22
M  V30 22 1 21 23
M  V30 23 1 20 4
M  V30 24 1 17 10
M  V30 25 1 1 24
M  V30 26 1 1 25
M  V30 27 1 2 26 CFG=1
M  V30 28 1 3 27
M  V30 29 1 3 28
M  V30 30 1 5 29
M  V30 31 1 11 30
M  V30 32 1 12 31
M  V30 33 1 14 32
M  V30 34 1 17 33
M  V30 35 1 20 34
M  V30 36 1 23 35
M  V30 END BOND
M  V30 END CTAB
M  END
>  <Dataset>  (528) 
OralDrugs

>  <Ligand_Instance>  (528) 
nan

>  <PDB_ID>  (528) 
nan

>  <Standardized_SMILES>  (528) 
N[C@@H](Cc1cc(I)c(Oc2ccc(O)c(I)c2)c(I)c1)C(=O)O

>  <Name>  (528) 
Liothyronine

>  <Pocket>  (528) 
nan

>  <ATP_Site>  (528) 
nan

>  <Peripheral>  (528) 
nan

>  <Num_H_Atoms_ProtBoundConf>  (528) 
nan

>  <Num_Resolved_Atoms>  (528) 
nan

>  <Num_Not_Resolved_Atoms>  (528) 
nan

$$$$
CHEMBL419213
     RDKit          3D

  0  0  0  0  0  0  0  0  0  0999 V3000
M  V30 BEGIN CTAB
M  V30 COUNTS 60 61 0 0 0
M  V30 BEGIN ATOM
M  V30 1 N -1.009828 0.100659 6.431686 0
M  V30 2 C -0.822836 -0.609593 5.169441 0
M  V30 3 C 0.497714 -1.300050 5.206976 0
M  V30 4 C 0.814563 -2.101332 3.941136 0
M  V30 5 C 0.841408 -1.182742 2.783725 0
M  V30 6 C 1.172730 -1.733053 1.447183 0 CFG=2
M  V30 7 N 1.148125 -0.697319 0.479725 0
M  V30 8 C 0.147980 0.290362 0.534351 0 CFG=1
M  V30 9 C 0.291451 1.171817 -0.715154 0
M  V30 10 C -0.723019 2.268598 -0.771506 0
M  V30 11 C -0.521812 3.087977 -2.008390 0
M  V30 12 C -1.128324 2.831074 -3.232218 0
M  V30 13 C -0.871088 3.656547 -4.316488 0
M  V30 14 C -0.006463 4.747949 -4.194515 0
M  V30 15 C 0.609888 5.027485 -2.992135 0
M  V30 16 C 0.336130 4.190851 -1.931908 0
M  V30 17 C -1.198167 -0.301369 0.584395 0
M  V30 18 O -1.904723 -1.369766 0.620135 0
M  V30 19 O -2.572754 -0.196752 0.626481 0
M  V30 20 C 0.641995 -3.015704 1.048891 0
M  V30 21 O 0.579430 -3.905044 1.896960 0
M  V30 22 N 0.144829 -3.524579 -0.176645 0
M  V30 23 C 0.059567 -2.814871 -1.462865 0
M  V30 24 C 0.841077 -3.768162 -2.390112 0
M  V30 25 C 0.553274 -5.147858 -1.771599 0
M  V30 26 C -0.417889 -4.743866 -0.672805 0 CFG=1
M  V30 27 C -0.586916 -5.812987 0.327248 0
M  V30 28 O -0.474126 -6.207010 1.519163 0
M  V30 29 O -0.992986 -7.095533 0.570880 0
M  V30 30 H -2.042855 0.130529 6.631539 0
M  V30 31 H -0.715671 1.095781 6.338078 0
M  V30 32 H -1.630794 -1.363821 5.071410 0
M  V30 33 H -0.967394 0.137075 4.390489 0
M  V30 34 H 1.302933 -0.508060 5.226769 0
M  V30 35 H 0.564249 -1.914347 6.103984 0
M  V30 36 H 1.813455 -2.542027 4.137997 0
M  V30 37 H 0.111218 -2.961825 3.863974 0
M  V30 38 H -0.106704 -0.562646 2.761813 0
M  V30 39 H 1.627987 -0.400331 3.003061 0
M  V30 40 H 2.329743 -1.953378 1.542525 0
M  V30 41 H 2.043904 -0.445068 0.058654 0
M  V30 42 H 0.218717 0.945353 1.447305 0
M  V30 43 H 1.287459 1.654491 -0.736350 0
M  V30 44 H 0.256281 0.534842 -1.620131 0
M  V30 45 H -1.766483 1.917821 -0.823157 0
M  V30 46 H -0.644165 2.970883 0.081896 0
M  V30 47 H -1.788776 1.973418 -3.271807 0
M  V30 48 H -1.386403 3.379850 -5.225685 0
M  V30 49 H 0.161960 5.362068 -5.069336 0
M  V30 50 H 1.282805 5.865526 -2.871703 0
M  V30 51 H 0.813021 4.395360 -0.975246 0
M  V30 52 H -3.120411 0.653419 0.669835 0
M  V30 53 H -0.990843 -2.819576 -1.779124 0
M  V30 54 H 0.532458 -1.839696 -1.463384 0
M  V30 55 H 1.911691 -3.507152 -2.290028 0
M  V30 56 H 0.449857 -3.710731 -3.424905 0
M  V30 57 H 0.108308 -5.811603 -2.527467 0
M  V30 58 H 1.484467 -5.521086 -1.314787 0
M  V30 59 H -1.398854 -4.522220 -1.153231 0
M  V30 60 H -1.233716 -7.823543 -0.070156 0
M  V30 END ATOM
M  V30 BEGIN BOND
M  V30 1 1 1 2
M  V30 2 1 2 3
M  V30 3 1 3 4
M  V30 4 1 4 5
M  V30 5 1 5 6
M  V30 6 1 6 7
M  V30 7 1 7 8
M  V30 8 1 8 9
M  V30 9 1 9 10
M  V30 10 1 10 11
M  V30 11 2 11 12
M  V30 12 1 12 13
M  V30 13 2 13 14
M  V30 14 1 14 15
M  V30 15 2 15 16
M  V30 16 1 8 17
M  V30 17 2 17 18
M  V30 18 1 17 19
M  V30 19 1 6 20
M  V30 20 2 20 21
M  V30 21 1 20 22
M  V30 22 1 22 23
M  V30 23 1 23 24
M  V30 24 1 24 25
M  V30 25 1 25 26
M  V30 26 1 26 27
M  V30 27 2 27 28
M  V30 28 1 27 29
M  V30 29 1 16 11
M  V30 30 1 26 22
M  V30 31 1 1 30
M  V30 32 1 1 31
M  V30 33 1 2 32
M  V30 34 1 2 33
M  V30 35 1 3 34
M  V30 36 1 3 35
M  V30 37 1 4 36
M  V30 38 1 4 37
M  V30 39 1 5 38
M  V30 40 1 5 39
M  V30 41 1 6 40 CFG=1
M  V30 42 1 7 41
M  V30 43 1 8 42 CFG=1
M  V30 44 1 9 43
M  V30 45 1 9 44
M  V30 46 1 10 45
M  V30 47 1 10 46
M  V30 48 1 12 47
M  V30 49 1 13 48
M  V30 50 1 14 49
M  V30 51 1 15 50
M  V30 52 1 16 51
M  V30 53 1 19 52
M  V30 54 1 23 53
M  V30 55 1 23 54
M  V30 56 1 24 55
M  V30 57 1 24 56
M  V30 58 1 25 57
M  V30 59 1 25 58
M  V30 60 1 26 59 CFG=3
M  V30 61 1 29 60
M  V30 END BOND
M  V30 END CTAB
M  END
>  <Dataset>  (529) 
OralDrugs

>  <Ligand_Instance>  (529) 
nan

>  <PDB_ID>  (529) 
nan

>  <Standardized_SMILES>  (529) 
NCCCC[C@H](N[C@@H](CCc1ccccc1)C(=O)O)C(=O)N1CCC[C@H]1C(=O)O

>  <Name>  (529) 
Lisinopril

>  <Pocket>  (529) 
nan

>  <ATP_Site>  (529) 
nan

>  <Peripheral>  (529) 
nan

>  <Num_H_Atoms_ProtBoundConf>  (529) 
nan

>  <Num_Resolved_Atoms>  (529) 
nan

>  <Num_Not_Resolved_Atoms>  (529) 
nan

$$$$
CHEMBL17860
     RDKit          3D

  0  0  0  0  0  0  0  0  0  0999 V3000
M  V30 BEGIN CTAB
M  V30 COUNTS 28 29 0 0 0
M  V30 BEGIN ATOM
M  V30 1 C 0.620815 -3.084744 1.453354 0
M  V30 2 C 0.330333 -1.613637 1.377155 0
M  V30 3 O 0.883412 -1.130121 0.158312 0
M  V30 4 C 1.900898 -0.204504 0.079127 0
M  V30 5 C 3.266937 -0.380237 0.040694 0
M  V30 6 Cl 3.766282 -2.049943 0.103423 0
M  V30 7 C 4.099946 0.713680 -0.040223 0
M  V30 8 C 3.623288 2.005094 -0.085676 0
M  V30 9 C 2.255298 2.188788 -0.047557 0
M  V30 10 C 1.394031 1.096182 0.034265 0
M  V30 11 Cl -0.304805 1.533441 0.071610 0
M  V30 12 C -1.134075 -1.364987 1.441850 0
M  V30 13 N -1.803931 -0.681198 2.307779 0
M  V30 14 C -3.218177 -0.675584 2.026300 0
M  V30 15 C -3.236670 -1.036947 0.556069 0
M  V30 16 N -2.047558 -1.889504 0.484862 0
M  V30 17 H 1.183075 -3.340822 2.393497 0
M  V30 18 H -0.346374 -3.624926 1.467351 0
M  V30 19 H 1.179507 -3.489726 0.584418 0
M  V30 20 H 0.865249 -1.115578 2.219438 0
M  V30 21 H 5.149619 0.498530 -0.065932 0
M  V30 22 H 4.346646 2.787827 -0.147946 0
M  V30 23 H 1.930661 3.215753 -0.085574 0
M  V30 24 H -3.705177 0.296959 2.183573 0
M  V30 25 H -3.710256 -1.496187 2.588522 0
M  V30 26 H -2.999047 -0.160650 -0.082579 0
M  V30 27 H -4.146540 -1.547679 0.237875 0
M  V30 28 H -1.937781 -2.702269 -0.151379 0
M  V30 END ATOM
M  V30 BEGIN BOND
M  V30 1 1 1 2
M  V30 2 1 2 3
M  V30 3 1 3 4
M  V30 4 2 4 5
M  V30 5 1 5 6
M  V30 6 1 5 7
M  V30 7 2 7 8
M  V30 8 1 8 9
M  V30 9 2 9 10
M  V30 10 1 10 11
M  V30 11 1 2 12
M  V30 12 2 12 13
M  V30 13 1 13 14
M  V30 14 1 14 15
M  V30 15 1 15 16
M  V30 16 1 10 4
M  V30 17 1 16 12
M  V30 18 1 1 17
M  V30 19 1 1 18
M  V30 20 1 1 19
M  V30 21 1 2 20
M  V30 22 1 7 21
M  V30 23 1 8 22
M  V30 24 1 9 23
M  V30 25 1 14 24
M  V30 26 1 14 25
M  V30 27 1 15 26
M  V30 28 1 15 27
M  V30 29 1 16 28
M  V30 END BOND
M  V30 END CTAB
M  END
>  <Dataset>  (530) 
OralDrugs

>  <Ligand_Instance>  (530) 
nan

>  <PDB_ID>  (530) 
nan

>  <Standardized_SMILES>  (530) 
CC(Oc1c(Cl)cccc1Cl)C1=NCCN1

>  <Name>  (530) 
Lofexidine

>  <Pocket>  (530) 
nan

>  <ATP_Site>  (530) 
nan

>  <Peripheral>  (530) 
nan

>  <Num_H_Atoms_ProtBoundConf>  (530) 
nan

>  <Num_Resolved_Atoms>  (530) 
nan

>  <Num_Not_Resolved_Atoms>  (530) 
nan

$$$$
CHEMBL561
     RDKit          3D

  0  0  0  0  0  0  0  0  0  0999 V3000
M  V30 BEGIN CTAB
M  V30 COUNTS 44 46 0 0 0
M  V30 BEGIN ATOM
M  V30 1 C -0.131830 -4.012314 0.207634 0
M  V30 2 C 1.207368 -3.523780 0.714050 0
M  V30 3 N 1.730642 -2.531894 -0.201155 0
M  V30 4 C 2.601648 -2.964983 -1.164421 0
M  V30 5 C 3.241436 -2.194989 -2.112657 0
M  V30 6 C 4.146790 -2.805723 -3.078133 0
M  V30 7 O 4.413827 -4.033464 -3.131041 0
M  V30 8 O 4.763395 -1.966923 -4.013392 0
M  V30 9 C 2.982037 -0.840594 -2.097098 0
M  V30 10 O 3.517248 -0.081470 -2.914780 0
M  V30 11 C 2.109631 -0.357844 -1.144523 0
M  V30 12 C 1.795101 0.987165 -1.076004 0
M  V30 13 C 0.908883 1.530380 -0.137434 0
M  V30 14 F 0.689211 2.857466 -0.178096 0
M  V30 15 C 0.336192 0.619935 0.758215 0
M  V30 16 N -0.553946 1.252413 1.679979 0
M  V30 17 C -0.232505 1.811902 2.980079 0
M  V30 18 C -0.870320 0.963727 4.029014 0
M  V30 19 N -2.144848 0.440722 3.601527 0
M  V30 20 C -2.781420 1.249000 2.597307 0
M  V30 21 C -3.171462 2.565145 3.225417 0
M  V30 22 C -1.957373 1.395222 1.362440 0
M  V30 23 C 0.649318 -0.719117 0.690446 0
M  V30 24 F 0.011673 -1.452859 1.594334 0
M  V30 25 C 1.520445 -1.211924 -0.239672 0
M  V30 26 H -0.936257 -3.908146 0.994129 0
M  V30 27 H -0.501009 -3.383175 -0.638406 0
M  V30 28 H -0.154282 -5.085627 -0.050533 0
M  V30 29 H 1.858964 -4.459304 0.655452 0
M  V30 30 H 1.093210 -3.218318 1.746398 0
M  V30 31 H 2.829285 -4.039198 -1.203666 0
M  V30 32 H 5.659087 -2.170403 -4.433468 0
M  V30 33 H 2.288409 1.628894 -1.815271 0
M  V30 34 H -0.538663 2.894283 3.033153 0
M  V30 35 H 0.881348 1.782204 3.091521 0
M  V30 36 H -0.205805 0.066523 4.176994 0
M  V30 37 H -0.903940 1.500671 4.976977 0
M  V30 38 H -2.779043 0.153435 4.347006 0
M  V30 39 H -3.724904 0.703280 2.319146 0
M  V30 40 H -2.957711 3.437147 2.583209 0
M  V30 41 H -2.633649 2.741189 4.194275 0
M  V30 42 H -4.265047 2.582231 3.443793 0
M  V30 43 H -2.176782 2.423649 0.954214 0
M  V30 44 H -2.216462 0.704644 0.550629 0
M  V30 END ATOM
M  V30 BEGIN BOND
M  V30 1 1 1 2
M  V30 2 1 2 3
M  V30 3 1 3 4
M  V30 4 2 4 5
M  V30 5 1 5 6
M  V30 6 2 6 7
M  V30 7 1 6 8
M  V30 8 1 5 9
M  V30 9 2 9 10
M  V30 10 1 9 11
M  V30 11 2 11 12
M  V30 12 1 12 13
M  V30 13 1 13 14
M  V30 14 2 13 15
M  V30 15 1 15 16
M  V30 16 1 16 17
M  V30 17 1 17 18
M  V30 18 1 18 19
M  V30 19 1 19 20
M  V30 20 1 20 21
M  V30 21 1 20 22
M  V30 22 1 15 23
M  V30 23 1 23 24
M  V30 24 2 23 25
M  V30 25 1 25 3
M  V30 26 1 25 11
M  V30 27 1 22 16
M  V30 28 1 1 26
M  V30 29 1 1 27
M  V30 30 1 1 28
M  V30 31 1 2 29
M  V30 32 1 2 30
M  V30 33 1 4 31
M  V30 34 1 8 32
M  V30 35 1 12 33
M  V30 36 1 17 34
M  V30 37 1 17 35
M  V30 38 1 18 36
M  V30 39 1 18 37
M  V30 40 1 19 38
M  V30 41 1 20 39
M  V30 42 1 21 40
M  V30 43 1 21 41
M  V30 44 1 21 42
M  V30 45 1 22 43
M  V30 46 1 22 44
M  V30 END BOND
M  V30 END CTAB
M  END
>  <Dataset>  (531) 
OralDrugs

>  <Ligand_Instance>  (531) 
nan

>  <PDB_ID>  (531) 
nan

>  <Standardized_SMILES>  (531) 
CCn1cc(C(=O)O)c(=O)c2cc(F)c(N3CCNC(C)C3)c(F)c21

>  <Name>  (531) 
Lomefloxacin

>  <Pocket>  (531) 
nan

>  <ATP_Site>  (531) 
nan

>  <Peripheral>  (531) 
nan

>  <Num_H_Atoms_ProtBoundConf>  (531) 
nan

>  <Num_Resolved_Atoms>  (531) 
nan

>  <Num_Not_Resolved_Atoms>  (531) 
nan

$$$$
CHEMBL354541
     RDKit          3D

  0  0  0  0  0  0  0  0  0  0999 V3000
M  V30 BEGIN CTAB
M  V30 COUNTS 87 92 0 0 0
M  V30 BEGIN ATOM
M  V30 1 O 3.712837 -3.396349 -3.741436 0
M  V30 2 C 3.419971 -2.741472 -2.681664 0
M  V30 3 N 2.384258 -1.760811 -2.916947 0
M  V30 4 C 1.638861 -1.412260 -4.109813 0
M  V30 5 C 2.237888 -0.131744 -4.737027 0
M  V30 6 C 2.407045 0.910598 -3.670328 0
M  V30 7 N 1.266475 0.955490 -2.818238 0
M  V30 8 C 1.432808 1.644038 -1.620873 0
M  V30 9 C 0.206189 1.855196 -0.738608 0
M  V30 10 C 0.614596 2.631999 0.492909 0
M  V30 11 C -0.419529 3.014400 1.449539 0
M  V30 12 C -1.259464 2.027572 2.136619 0
M  V30 13 C -2.225495 2.759106 3.103228 0
M  V30 14 O -2.397850 3.978836 3.439710 0
M  V30 15 N -3.158128 1.942221 3.806526 0
M  V30 16 C -4.034344 2.677642 4.697329 0
M  V30 17 C -4.938409 1.625014 5.334776 0
M  V30 18 F -4.186739 0.693300 6.034316 0
M  V30 19 F -5.836955 2.176887 6.224737 0
M  V30 20 F -5.576832 0.973765 4.312353 0
M  V30 21 C -2.215500 1.394187 1.171710 0
M  V30 22 C -2.986124 2.070264 0.255142 0
M  V30 23 C -3.859001 1.356548 -0.538998 0
M  V30 24 C -3.912693 -0.017035 -0.367328 0
M  V30 25 C -3.109459 -0.655831 0.576334 0
M  V30 26 C -2.228294 0.032441 1.381238 0
M  V30 27 C -1.242224 -0.244585 2.415326 0
M  V30 28 C -0.931829 -1.485289 2.887617 0
M  V30 29 C 0.064905 -1.580362 3.859373 0
M  V30 30 C 0.692943 -0.416476 4.299476 0
M  V30 31 C 0.363758 0.841031 3.807316 0
M  V30 32 C -0.620435 0.928912 2.849722 0
M  V30 33 C 0.074074 0.362389 -3.211755 0
M  V30 34 C 0.221637 -1.039391 -3.781987 0
M  V30 35 C 3.913394 -2.775393 -1.282173 0
M  V30 36 C 5.154027 -2.434376 -0.788634 0
M  V30 37 C 5.372809 -2.518119 0.569683 0
M  V30 38 C 4.367889 -2.935532 1.411341 0
M  V30 39 C 3.118817 -3.280137 0.916953 0
M  V30 40 C 2.874568 -3.204614 -0.443319 0
M  V30 41 C 1.543318 -3.618147 -0.844883 0
M  V30 42 C 1.459637 -4.608204 -1.819059 0
M  V30 43 C 0.231924 -5.069495 -2.307946 0
M  V30 44 C -0.933284 -4.526251 -1.808243 0
M  V30 45 C -2.291457 -4.962156 -2.288606 0
M  V30 46 F -2.933059 -5.729605 -1.373192 0
M  V30 47 F -3.033665 -3.812305 -2.477926 0
M  V30 48 F -2.126481 -5.651122 -3.477998 0
M  V30 49 C -0.801416 -3.550702 -0.845670 0
M  V30 50 C 0.379689 -3.064363 -0.333935 0
M  V30 51 H 2.077270 -1.160501 -2.119655 0
M  V30 52 H 1.734853 -2.159081 -4.913158 0
M  V30 53 H 3.190726 -0.363236 -5.237303 0
M  V30 54 H 1.533278 0.168941 -5.540243 0
M  V30 55 H 2.618450 1.871177 -4.187732 0
M  V30 56 H 3.347142 0.637469 -3.103513 0
M  V30 57 H 2.130212 1.032016 -0.962388 0
M  V30 58 H 1.990064 2.620604 -1.708783 0
M  V30 59 H -0.224374 0.868801 -0.463732 0
M  V30 60 H -0.564172 2.434765 -1.275961 0
M  V30 61 H 1.127289 3.557396 0.077791 0
M  V30 62 H 1.436209 2.116874 1.043918 0
M  V30 63 H 0.063391 3.662580 2.263236 0
M  V30 64 H -1.100607 3.765770 0.904280 0
M  V30 65 H -3.146142 0.891757 3.634051 0
M  V30 66 H -3.460391 3.135370 5.555114 0
M  V30 67 H -4.687887 3.405563 4.180702 0
M  V30 68 H -2.940585 3.149330 0.125612 0
M  V30 69 H -4.474845 1.844633 -1.265247 0
M  V30 70 H -4.596436 -0.575224 -0.990048 0
M  V30 71 H -3.169681 -1.713316 0.703648 0
M  V30 72 H -1.396453 -2.404623 2.569402 0
M  V30 73 H 0.345175 -2.556447 4.265506 0
M  V30 74 H 1.455072 -0.578361 5.055503 0
M  V30 75 H 0.883766 1.705461 4.188375 0
M  V30 76 H -0.586313 0.272206 -2.294473 0
M  V30 77 H -0.518617 0.941223 -3.969673 0
M  V30 78 H -0.181941 -1.797157 -3.082705 0
M  V30 79 H -0.379019 -1.156257 -4.719721 0
M  V30 80 H 5.841057 -2.126893 -1.565038 0
M  V30 81 H 6.373208 -2.235231 0.894823 0
M  V30 82 H 4.600925 -2.979478 2.482645 0
M  V30 83 H 2.383186 -3.600046 1.665687 0
M  V30 84 H 2.271087 -5.130108 -2.294312 0
M  V30 85 H 0.130529 -5.839747 -3.066875 0
M  V30 86 H -1.735752 -3.153456 -0.481913 0
M  V30 87 H 0.455870 -2.295161 0.419540 0
M  V30 END ATOM
M  V30 BEGIN BOND
M  V30 1 2 1 2
M  V30 2 1 2 3
M  V30 3 1 3 4
M  V30 4 1 4 5
M  V30 5 1 5 6
M  V30 6 1 6 7
M  V30 7 1 7 8
M  V30 8 1 8 9
M  V30 9 1 9 10
M  V30 10 1 10 11
M  V30 11 1 11 12
M  V30 12 1 12 13
M  V30 13 2 13 14
M  V30 14 1 13 15
M  V30 15 1 15 16
M  V30 16 1 16 17
M  V30 17 1 17 18
M  V30 18 1 17 19
M  V30 19 1 17 20
M  V30 20 1 12 21
M  V30 21 2 21 22
M  V30 22 1 22 23
M  V30 23 2 23 24
M  V30 24 1 24 25
M  V30 25 2 25 26
M  V30 26 1 26 27
M  V30 27 2 27 28
M  V30 28 1 28 29
M  V30 29 2 29 30
M  V30 30 1 30 31
M  V30 31 2 31 32
M  V30 32 1 7 33
M  V30 33 1 33 34
M  V30 34 1 2 35
M  V30 35 2 35 36
M  V30 36 1 36 37
M  V30 37 2 37 38
M  V30 38 1 38 39
M  V30 39 2 39 40
M  V30 40 1 40 41
M  V30 41 2 41 42
M  V30 42 1 42 43
M  V30 43 2 43 44
M  V30 44 1 44 45
M  V30 45 1 45 46
M  V30 46 1 45 47
M  V30 47 1 45 48
M  V30 48 1 44 49
M  V30 49 2 49 50
M  V30 50 1 34 4
M  V30 51 1 40 35
M  V30 52 1 50 41
M  V30 53 1 32 12
M  V30 54 1 26 21
M  V30 55 1 32 27
M  V30 56 1 3 51
M  V30 57 1 4 52
M  V30 58 1 5 53
M  V30 59 1 5 54
M  V30 60 1 6 55
M  V30 61 1 6 56
M  V30 62 1 8 57
M  V30 63 1 8 58
M  V30 64 1 9 59
M  V30 65 1 9 60
M  V30 66 1 10 61
M  V30 67 1 10 62
M  V30 68 1 11 63
M  V30 69 1 11 64
M  V30 70 1 15 65
M  V30 71 1 16 66
M  V30 72 1 16 67
M  V30 73 1 22 68
M  V30 74 1 23 69
M  V30 75 1 24 70
M  V30 76 1 25 71
M  V30 77 1 28 72
M  V30 78 1 29 73
M  V30 79 1 30 74
M  V30 80 1 31 75
M  V30 81 1 33 76
M  V30 82 1 33 77
M  V30 83 1 34 78
M  V30 84 1 34 79
M  V30 85 1 36 80
M  V30 86 1 37 81
M  V30 87 1 38 82
M  V30 88 1 39 83
M  V30 89 1 42 84
M  V30 90 1 43 85
M  V30 91 1 49 86
M  V30 92 1 50 87
M  V30 END BOND
M  V30 END CTAB
M  END
>  <Dataset>  (532) 
OralDrugs

>  <Ligand_Instance>  (532) 
nan

>  <PDB_ID>  (532) 
nan

>  <Standardized_SMILES>  (532) 
O=C(NC1CCN(CCCCC2(C(=O)NCC(F)(F)F)c3ccccc3-c3ccccc32)CC1)c1ccccc1-c1ccc(C(F)(F)F)cc1

>  <Name>  (532) 
Lomitapide

>  <Pocket>  (532) 
nan

>  <ATP_Site>  (532) 
nan

>  <Peripheral>  (532) 
nan

>  <Num_H_Atoms_ProtBoundConf>  (532) 
nan

>  <Num_Resolved_Atoms>  (532) 
nan

>  <Num_Not_Resolved_Atoms>  (532) 
nan

$$$$
CHEMBL514
     RDKit          3D

  0  0  0  0  0  0  0  0  0  0999 V3000
M  V30 BEGIN CTAB
M  V30 COUNTS 31 31 0 0 0
M  V30 BEGIN ATOM
M  V30 1 O 3.652209 0.628292 3.050233 0
M  V30 2 N 2.970065 0.722824 2.011344 0
M  V30 3 N 2.662586 -0.426986 1.241299 0
M  V30 4 C 3.657256 -1.402594 0.960973 0
M  V30 5 C 3.650452 -2.459922 2.069198 0
M  V30 6 Cl 4.880148 -3.701029 1.758013 0
M  V30 7 C 1.402600 0.222485 1.250333 0
M  V30 8 O 1.558714 1.288401 1.925895 0
M  V30 9 N 0.209289 -0.262227 0.609691 0
M  V30 10 C -1.015989 0.507077 0.699754 0
M  V30 11 C -1.559853 0.921345 -0.639610 0
M  V30 12 C -2.566096 -0.073075 -1.179197 0
M  V30 13 C -2.200645 -1.491320 -0.824140 0
M  V30 14 C -2.131879 -1.656961 0.659354 0
M  V30 15 C -2.086658 -0.324386 1.376418 0
M  V30 16 H 4.640427 -0.891112 1.023144 0
M  V30 17 H 3.596148 -1.870600 -0.030510 0
M  V30 18 H 2.669855 -2.960920 2.159033 0
M  V30 19 H 3.934869 -1.938987 3.024763 0
M  V30 20 H 0.406550 -1.157178 0.139317 0
M  V30 21 H -0.780147 1.421752 1.302763 0
M  V30 22 H -2.130049 1.865116 -0.472497 0
M  V30 23 H -0.789756 1.153187 -1.384146 0
M  V30 24 H -3.593927 0.106822 -0.762120 0
M  V30 25 H -2.674922 0.025718 -2.271182 0
M  V30 26 H -3.048653 -2.117307 -1.186027 0
M  V30 27 H -1.324556 -1.805486 -1.388836 0
M  V30 28 H -1.170753 -2.183305 0.913862 0
M  V30 29 H -2.937072 -2.308882 1.061345 0
M  V30 30 H -1.671648 -0.531960 2.404417 0
M  V30 31 H -3.053926 0.176906 1.412580 0
M  V30 END ATOM
M  V30 BEGIN BOND
M  V30 1 2 1 2
M  V30 2 1 2 3
M  V30 3 1 3 4
M  V30 4 1 4 5
M  V30 5 1 5 6
M  V30 6 1 3 7
M  V30 7 2 7 8
M  V30 8 1 7 9
M  V30 9 1 9 10
M  V30 10 1 10 11
M  V30 11 1 11 12
M  V30 12 1 12 13
M  V30 13 1 13 14
M  V30 14 1 14 15
M  V30 15 1 15 10
M  V30 16 1 4 16
M  V30 17 1 4 17
M  V30 18 1 5 18
M  V30 19 1 5 19
M  V30 20 1 9 20
M  V30 21 1 10 21
M  V30 22 1 11 22
M  V30 23 1 11 23
M  V30 24 1 12 24
M  V30 25 1 12 25
M  V30 26 1 13 26
M  V30 27 1 13 27
M  V30 28 1 14 28
M  V30 29 1 14 29
M  V30 30 1 15 30
M  V30 31 1 15 31
M  V30 END BOND
M  V30 END CTAB
M  END
>  <Dataset>  (533) 
OralDrugs

>  <Ligand_Instance>  (533) 
nan

>  <PDB_ID>  (533) 
nan

>  <Standardized_SMILES>  (533) 
O=NN(CCCl)C(=O)NC1CCCCC1

>  <Name>  (533) 
Lomustine

>  <Pocket>  (533) 
nan

>  <ATP_Site>  (533) 
nan

>  <Peripheral>  (533) 
nan

>  <Num_H_Atoms_ProtBoundConf>  (533) 
nan

>  <Num_Resolved_Atoms>  (533) 
nan

>  <Num_Not_Resolved_Atoms>  (533) 
nan

$$$$
CHEMBL298734
     RDKit          3D

  0  0  0  0  0  0  0  0  0  0999 V3000
M  V30 BEGIN CTAB
M  V30 COUNTS 67 71 0 0 0
M  V30 BEGIN ATOM
M  V30 1 N 3.932378 0.562660 4.848466 0
M  V30 2 C 3.953372 -0.060166 3.583052 0
M  V30 3 O 3.797165 -1.310851 3.738913 0
M  V30 4 N 4.128767 0.689656 2.378236 0
M  V30 5 C 4.311888 2.105055 2.115796 0
M  V30 6 C 3.019990 2.584441 1.520737 0
M  V30 7 C 2.577782 1.853217 0.299095 0
M  V30 8 C 1.071901 1.899025 0.274976 0
M  V30 9 C 0.464809 1.219934 -0.872466 0
M  V30 10 O 1.259900 0.682350 -1.697072 0
M  V30 11 N -0.959629 1.246583 -0.922497 0
M  V30 12 C -1.810479 1.883620 0.060662 0
M  V30 13 C -2.710308 0.882757 0.727607 0
M  V30 14 C -3.187276 -0.248724 -0.159395 0
M  V30 15 C -2.412663 -1.464663 -0.074612 0 CFG=1
M  V30 16 C -2.160588 -2.148826 1.214307 0
M  V30 17 N -3.006987 -1.987763 2.243201 0
M  V30 18 C -2.827156 -2.588654 3.421190 0
M  V30 19 C -1.738853 -3.410682 3.613761 0
M  V30 20 Br -1.487157 -4.271191 5.309874 0
M  V30 21 C -0.842790 -3.605176 2.584057 0
M  V30 22 C -1.010634 -2.982786 1.333397 0
M  V30 23 C 0.138518 -3.428297 0.516163 0
M  V30 24 C 0.101656 -3.033942 -0.935399 0
M  V30 25 C -1.279930 -3.238371 -1.515528 0
M  V30 26 C -1.246773 -4.237905 -2.457432 0
M  V30 27 C -2.431958 -4.600528 -3.033824 0
M  V30 28 Cl -2.394111 -5.869359 -4.235308 0
M  V30 29 C -3.586291 -3.971632 -2.661016 0
M  V30 30 C -3.556689 -2.980451 -1.714508 0
M  V30 31 Br -5.225969 -2.286133 -1.216001 0
M  V30 32 C -2.433827 -2.534238 -1.077143 0
M  V30 33 C -3.110331 0.444182 -1.525608 0
M  V30 34 C -1.683733 0.613477 -2.002620 0
M  V30 35 C 3.133958 0.479468 0.123774 0
M  V30 36 C 4.146391 0.032460 1.104166 0
M  V30 37 H 4.656592 0.577103 5.579721 0
M  V30 38 H 3.247022 1.152737 5.402814 0
M  V30 39 H 4.424303 2.667326 3.083585 0
M  V30 40 H 5.194990 2.327068 1.503280 0
M  V30 41 H 2.247916 2.471260 2.316283 0
M  V30 42 H 3.039681 3.697078 1.330051 0
M  V30 43 H 2.909940 2.454678 -0.580679 0
M  V30 44 H 0.684165 1.492798 1.212925 0
M  V30 45 H 0.826095 2.992534 0.149417 0
M  V30 46 H -1.210089 2.422603 0.831761 0
M  V30 47 H -2.383799 2.721278 -0.439899 0
M  V30 48 H -2.211876 0.566309 1.645522 0
M  V30 49 H -3.612647 1.443530 1.046638 0
M  V30 50 H -4.261294 -0.382409 -0.066249 0
M  V30 51 H -1.377660 -0.969013 -0.268367 0
M  V30 52 H -3.538690 -2.417906 4.199027 0
M  V30 53 H -0.012809 -4.263562 2.808458 0
M  V30 54 H 0.293699 -4.497946 0.643466 0
M  V30 55 H 1.031887 -2.902017 0.952422 0
M  V30 56 H 0.332778 -1.961136 -1.092205 0
M  V30 57 H 0.802926 -3.652633 -1.484885 0
M  V30 58 H -0.304173 -4.681385 -2.693457 0
M  V30 59 H -4.503680 -4.281764 -3.133978 0
M  V30 60 H -3.647522 -0.069298 -2.320426 0
M  V30 61 H -3.585094 1.446000 -1.436804 0
M  V30 62 H -1.240144 -0.308882 -2.373309 0
M  V30 63 H -1.725058 1.368851 -2.818481 0
M  V30 64 H 3.493153 0.298771 -0.915150 0
M  V30 65 H 2.255699 -0.224151 0.222854 0
M  V30 66 H 5.167235 0.182532 0.668158 0
M  V30 67 H 4.082874 -1.089116 1.221280 0
M  V30 END ATOM
M  V30 BEGIN BOND
M  V30 1 1 1 2
M  V30 2 2 2 3
M  V30 3 1 2 4
M  V30 4 1 4 5
M  V30 5 1 5 6
M  V30 6 1 6 7
M  V30 7 1 7 8
M  V30 8 1 8 9
M  V30 9 2 9 10
M  V30 10 1 9 11
M  V30 11 1 11 12
M  V30 12 1 12 13
M  V30 13 1 13 14
M  V30 14 1 14 15
M  V30 15 1 15 16
M  V30 16 2 16 17
M  V30 17 1 17 18
M  V30 18 2 18 19
M  V30 19 1 19 20
M  V30 20 1 19 21
M  V30 21 2 21 22
M  V30 22 1 22 23
M  V30 23 1 23 24
M  V30 24 1 24 25
M  V30 25 2 25 26
M  V30 26 1 26 27
M  V30 27 1 27 28
M  V30 28 2 27 29
M  V30 29 1 29 30
M  V30 30 1 30 31
M  V30 31 2 30 32
M  V30 32 1 14 33
M  V30 33 1 33 34
M  V30 34 1 7 35
M  V30 35 1 35 36
M  V30 36 1 36 4
M  V30 37 1 34 11
M  V30 38 1 32 15
M  V30 39 1 22 16
M  V30 40 1 32 25
M  V30 41 1 1 37
M  V30 42 1 1 38
M  V30 43 1 5 39
M  V30 44 1 5 40
M  V30 45 1 6 41
M  V30 46 1 6 42
M  V30 47 1 7 43
M  V30 48 1 8 44
M  V30 49 1 8 45
M  V30 50 1 12 46
M  V30 51 1 12 47
M  V30 52 1 13 48
M  V30 53 1 13 49
M  V30 54 1 14 50
M  V30 55 1 15 51 CFG=3
M  V30 56 1 18 52
M  V30 57 1 21 53
M  V30 58 1 23 54
M  V30 59 1 23 55
M  V30 60 1 24 56
M  V30 61 1 24 57
M  V30 62 1 26 58
M  V30 63 1 29 59
M  V30 64 1 33 60
M  V30 65 1 33 61
M  V30 66 1 34 62
M  V30 67 1 34 63
M  V30 68 1 35 64
M  V30 69 1 35 65
M  V30 70 1 36 66
M  V30 71 1 36 67
M  V30 END BOND
M  V30 END CTAB
M  END
>  <Dataset>  (534) 
OralDrugs

>  <Ligand_Instance>  (534) 
nan

>  <PDB_ID>  (534) 
nan

>  <Standardized_SMILES>  (534) 
NC(=O)N1CCC(CC(=O)N2CCC([C@H]3c4ncc(Br)cc4CCc4cc(Cl)cc(Br)c43)CC2)CC1

>  <Name>  (534) 
Lonafarnib

>  <Pocket>  (534) 
nan

>  <ATP_Site>  (534) 
nan

>  <Peripheral>  (534) 
nan

>  <Num_H_Atoms_ProtBoundConf>  (534) 
nan

>  <Num_Resolved_Atoms>  (534) 
nan

>  <Num_Not_Resolved_Atoms>  (534) 
nan

$$$$
CHEMBL1707
     RDKit          3D

  0  0  0  0  0  0  0  0  0  0999 V3000
M  V30 BEGIN CTAB
M  V30 COUNTS 67 70 0 0 0
M  V30 BEGIN ATOM
M  V30 1 C 5.190744 -0.932153 2.032132 0
M  V30 2 N 3.917087 -1.286198 2.662804 0
M  V30 3 C 3.705924 -1.557211 4.057560 0
M  V30 4 C 2.990450 -1.292933 1.602844 0
M  V30 5 O 3.814499 -0.980892 0.699712 0
M  V30 6 C 1.524042 -1.537420 1.335182 0
M  V30 7 C 1.365251 -1.415585 -0.167519 0
M  V30 8 C -0.025346 -1.623361 -0.558174 0
M  V30 9 N -0.359820 -1.559314 -1.938994 0
M  V30 10 C -1.762007 -1.792569 -2.040405 0
M  V30 11 C -2.498585 -1.007858 -3.063351 0
M  V30 12 C -2.225803 0.448575 -3.032459 0
M  V30 13 O -2.575728 0.946055 -4.310261 0
M  V30 14 C -3.068597 1.228840 -2.086061 0
M  V30 15 C -2.722889 2.584929 -2.136862 0
M  V30 16 C -3.386743 3.506068 -1.329630 0
M  V30 17 C -4.398300 3.084320 -0.467081 0
M  V30 18 Cl -5.259343 4.193823 0.562703 0
M  V30 19 C -4.711533 1.734278 -0.445499 0
M  V30 20 C -4.060965 0.817153 -1.239492 0
M  V30 21 C -0.810618 0.745648 -2.685755 0
M  V30 22 C 0.095461 -0.457593 -2.695357 0
M  V30 23 C 1.226641 -2.910197 1.737648 0
M  V30 24 C 1.224675 -4.110175 1.059058 0
M  V30 25 C 0.889680 -5.292880 1.679125 0
M  V30 26 C 0.536881 -5.347320 3.014119 0
M  V30 27 C 0.527516 -4.166056 3.726706 0
M  V30 28 C 0.867693 -2.975521 3.090523 0
M  V30 29 C 0.739909 -0.516070 2.047717 0
M  V30 30 C 1.366827 0.682885 2.398194 0
M  V30 31 C 0.716283 1.684955 3.067464 0
M  V30 32 C -0.612964 1.551310 3.431978 0
M  V30 33 C -1.259000 0.370694 3.096166 0
M  V30 34 C -0.568808 -0.613262 2.422640 0
M  V30 35 H 5.954006 -0.908401 2.841009 0
M  V30 36 H 5.490065 -1.717536 1.283226 0
M  V30 37 H 5.169845 0.069319 1.565659 0
M  V30 38 H 2.820196 -1.020064 4.468375 0
M  V30 39 H 3.532594 -2.643250 4.175390 0
M  V30 40 H 4.580239 -1.316588 4.674772 0
M  V30 41 H 2.050598 -2.165380 -0.619125 0
M  V30 42 H 1.813855 -0.440199 -0.438104 0
M  V30 43 H -0.698738 -0.861018 -0.058084 0
M  V30 44 H -0.390464 -2.595870 -0.180121 0
M  V30 45 H -2.296320 -1.624740 -1.059081 0
M  V30 46 H -1.919202 -2.881079 -2.233699 0
M  V30 47 H -3.576069 -1.258673 -2.949863 0
M  V30 48 H -2.197628 -1.381488 -4.069733 0
M  V30 49 H -2.785279 1.910937 -4.272196 0
M  V30 50 H -1.950696 3.047041 -2.767077 0
M  V30 51 H -3.154192 4.555740 -1.336186 0
M  V30 52 H -5.489065 1.328476 0.201007 0
M  V30 53 H -4.235945 -0.234948 -1.287853 0
M  V30 54 H -0.418325 1.456186 -3.455733 0
M  V30 55 H -0.688669 1.283574 -1.705494 0
M  V30 56 H 0.140543 -0.783944 -3.766073 0
M  V30 57 H 1.095725 -0.117902 -2.434797 0
M  V30 58 H 1.513062 -3.998441 0.024386 0
M  V30 59 H 0.920274 -6.173159 1.056918 0
M  V30 60 H 0.297193 -6.337691 3.374827 0
M  V30 61 H 0.250959 -4.251308 4.748684 0
M  V30 62 H 0.811242 -2.130256 3.788794 0
M  V30 63 H 2.415615 0.870235 2.148299 0
M  V30 64 H 1.161950 2.623234 3.356128 0
M  V30 65 H -1.206131 2.279319 3.956730 0
M  V30 66 H -2.291913 0.222680 3.359141 0
M  V30 67 H -1.101075 -1.509985 2.187274 0
M  V30 END ATOM
M  V30 BEGIN BOND
M  V30 1 1 1 2
M  V30 2 1 2 3
M  V30 3 1 2 4
M  V30 4 2 4 5
M  V30 5 1 4 6
M  V30 6 1 6 7
M  V30 7 1 7 8
M  V30 8 1 8 9
M  V30 9 1 9 10
M  V30 10 1 10 11
M  V30 11 1 11 12
M  V30 12 1 12 13
M  V30 13 1 12 14
M  V30 14 2 14 15
M  V30 15 1 15 16
M  V30 16 2 16 17
M  V30 17 1 17 18
M  V30 18 1 17 19
M  V30 19 2 19 20
M  V30 20 1 12 21
M  V30 21 1 21 22
M  V30 22 1 6 23
M  V30 23 2 23 24
M  V30 24 1 24 25
M  V30 25 2 25 26
M  V30 26 1 26 27
M  V30 27 2 27 28
M  V30 28 1 6 29
M  V30 29 2 29 30
M  V30 30 1 30 31
M  V30 31 2 31 32
M  V30 32 1 32 33
M  V30 33 2 33 34
M  V30 34 1 22 9
M  V30 35 1 28 23
M  V30 36 1 34 29
M  V30 37 1 20 14
M  V30 38 1 1 35
M  V30 39 1 1 36
M  V30 40 1 1 37
M  V30 41 1 3 38
M  V30 42 1 3 39
M  V30 43 1 3 40
M  V30 44 1 7 41
M  V30 45 1 7 42
M  V30 46 1 8 43
M  V30 47 1 8 44
M  V30 48 1 10 45
M  V30 49 1 10 46
M  V30 50 1 11 47
M  V30 51 1 11 48
M  V30 52 1 13 49
M  V30 53 1 15 50
M  V30 54 1 16 51
M  V30 55 1 19 52
M  V30 56 1 20 53
M  V30 57 1 21 54
M  V30 58 1 21 55
M  V30 59 1 22 56
M  V30 60 1 22 57
M  V30 61 1 24 58
M  V30 62 1 25 59
M  V30 63 1 26 60
M  V30 64 1 27 61
M  V30 65 1 28 62
M  V30 66 1 30 63
M  V30 67 1 31 64
M  V30 68 1 32 65
M  V30 69 1 33 66
M  V30 70 1 34 67
M  V30 END BOND
M  V30 END CTAB
M  END
>  <Dataset>  (535) 
OralDrugs

>  <Ligand_Instance>  (535) 
nan

>  <PDB_ID>  (535) 
nan

>  <Standardized_SMILES>  (535) 
CN(C)C(=O)C(CCN1CCC(O)(c2ccc(Cl)cc2)CC1)(c1ccccc1)c1ccccc1

>  <Name>  (535) 
Loperamide Hydrochloride

>  <Pocket>  (535) 
nan

>  <ATP_Site>  (535) 
nan

>  <Peripheral>  (535) 
nan

>  <Num_H_Atoms_ProtBoundConf>  (535) 
nan

>  <Num_Resolved_Atoms>  (535) 
nan

>  <Num_Not_Resolved_Atoms>  (535) 
nan

$$$$
CHEMBL729
     RDKit          3D

  0  0  0  0  0  0  0  0  0  0999 V3000
M  V30 BEGIN CTAB
M  V30 COUNTS 94 97 0 0 0
M  V30 BEGIN ATOM
M  V30 1 C 3.923210 -2.826493 4.601361 0
M  V30 2 C 4.643248 -1.959228 3.640886 0
M  V30 3 C 5.854148 -2.405589 3.161217 0
M  V30 4 C 6.498924 -1.552303 2.290961 0
M  V30 5 C 5.963422 -0.337233 1.929580 0
M  V30 6 C 4.729915 0.050810 2.454869 0
M  V30 7 C 4.245319 1.390505 1.992359 0
M  V30 8 C 4.021102 -0.765959 3.342837 0
M  V30 9 O 2.856912 -0.236293 3.743751 0
M  V30 10 C 1.571616 -0.240120 3.235402 0
M  V30 11 C 1.014734 -1.605458 3.080883 0
M  V30 12 O 1.084878 -2.856699 3.164408 0
M  V30 13 N -0.327141 -1.447720 2.560368 0
M  V30 14 C -1.377324 -2.366256 2.196727 0 CFG=1
M  V30 15 C -2.476104 -2.475062 3.157765 0
M  V30 16 C -3.299729 -1.380141 3.554434 0
M  V30 17 C -2.855991 -0.614709 4.651913 0
M  V30 18 C -3.551455 0.466997 5.150379 0
M  V30 19 C -4.742807 0.841014 4.566309 0
M  V30 20 C -5.247522 0.153252 3.496377 0
M  V30 21 C -4.500535 -0.894414 3.071981 0
M  V30 22 C -1.714264 -2.328599 0.721298 0 CFG=1
M  V30 23 O -2.724180 -3.249188 0.462325 0
M  V30 24 C -2.021539 -1.030153 0.147034 0
M  V30 25 C -2.347493 -0.806809 -1.271086 0 CFG=2
M  V30 26 C -3.458210 -1.355347 -2.005800 0
M  V30 27 C -3.774492 -2.722702 -2.272286 0
M  V30 28 C -4.635014 -3.712533 -1.777463 0
M  V30 29 C -4.736013 -5.001376 -2.235550 0
M  V30 30 C -3.938138 -5.412230 -3.279413 0
M  V30 31 C -3.067987 -4.523502 -3.828828 0
M  V30 32 C -2.988511 -3.213603 -3.338068 0
M  V30 33 N -1.091032 -0.776296 -2.093075 0
M  V30 34 C -0.645258 0.368024 -2.783449 0
M  V30 35 O -1.327289 1.441344 -2.724810 0
M  V30 36 C 0.490065 0.679198 -3.624009 0 CFG=2
M  V30 37 C 1.854629 0.530706 -3.011553 0
M  V30 38 C 1.940727 1.456123 -1.817826 0
M  V30 39 C 2.935460 0.980249 -3.985002 0
M  V30 40 N 0.316602 2.018954 -4.160284 0
M  V30 41 C 0.210946 3.332435 -3.563610 0
M  V30 42 C -0.859878 4.169646 -4.247826 0
M  V30 43 C -0.277818 4.571474 -5.588554 0
M  V30 44 N 0.188724 3.397920 -6.303421 0
M  V30 45 C 0.220024 2.144689 -5.594239 0
M  V30 46 O 0.152324 1.126867 -6.366123 0
M  V30 47 H 3.601540 -3.789971 4.135797 0
M  V30 48 H 4.626725 -3.126956 5.413884 0
M  V30 49 H 3.044914 -2.361760 5.064608 0
M  V30 50 H 6.227888 -3.375143 3.482491 0
M  V30 51 H 7.466127 -1.923884 1.917897 0
M  V30 52 H 6.541672 0.262953 1.244200 0
M  V30 53 H 5.086699 2.109507 2.039536 0
M  V30 54 H 4.027448 1.243426 0.902661 0
M  V30 55 H 3.389556 1.755559 2.563287 0
M  V30 56 H 1.527769 0.248774 2.207302 0
M  V30 57 H 0.908703 0.391497 3.873909 0
M  V30 58 H -0.885046 -0.569489 2.318833 0
M  V30 59 H -0.852701 -3.377492 2.305156 0
M  V30 60 H -3.146532 -3.291908 2.752664 0
M  V30 61 H -2.083754 -2.953706 4.107467 0
M  V30 62 H -1.929761 -0.861109 5.149717 0
M  V30 63 H -3.161199 1.027466 6.007607 0
M  V30 64 H -5.238014 1.695444 5.006580 0
M  V30 65 H -6.178178 0.431331 3.027298 0
M  V30 66 H -4.871497 -1.476636 2.211215 0
M  V30 67 H -0.811754 -2.736438 0.199999 0
M  V30 68 H -3.605439 -2.943051 0.806196 0
M  V30 69 H -2.904232 -0.571297 0.724480 0
M  V30 70 H -1.229905 -0.242774 0.370088 0
M  V30 71 H -2.574704 0.343004 -1.287050 0
M  V30 72 H -3.518920 -0.800302 -2.995955 0
M  V30 73 H -4.397720 -0.873498 -1.496758 0
M  V30 74 H -5.203677 -3.240076 -0.955945 0
M  V30 75 H -5.468212 -5.591349 -1.703264 0
M  V30 76 H -4.112325 -6.442824 -3.546739 0
M  V30 77 H -2.479230 -4.909955 -4.637367 0
M  V30 78 H -2.245169 -2.657212 -3.896680 0
M  V30 79 H -0.402787 -1.571084 -2.257738 0
M  V30 80 H 0.506586 0.003158 -4.511312 0
M  V30 81 H 2.105633 -0.468588 -2.692382 0
M  V30 82 H 2.280869 2.481019 -2.102455 0
M  V30 83 H 2.736140 1.108309 -1.100258 0
M  V30 84 H 1.011191 1.491621 -1.219228 0
M  V30 85 H 3.690524 1.612326 -3.468558 0
M  V30 86 H 2.509229 1.625921 -4.784161 0
M  V30 87 H 3.457223 0.097848 -4.391189 0
M  V30 88 H -0.006474 3.336525 -2.490012 0
M  V30 89 H 1.162131 3.908987 -3.676409 0
M  V30 90 H -1.052148 5.037741 -3.607201 0
M  V30 91 H -1.767275 3.546689 -4.421391 0
M  V30 92 H -1.015005 5.072469 -6.249828 0
M  V30 93 H 0.538565 5.289095 -5.389192 0
M  V30 94 H 0.481572 3.502703 -7.293941 0
M  V30 END ATOM
M  V30 BEGIN BOND
M  V30 1 1 1 2
M  V30 2 2 2 3
M  V30 3 1 3 4
M  V30 4 2 4 5
M  V30 5 1 5 6
M  V30 6 1 6 7
M  V30 7 2 6 8
M  V30 8 1 8 9
M  V30 9 1 9 10
M  V30 10 1 10 11
M  V30 11 2 11 12
M  V30 12 1 11 13
M  V30 13 1 13 14
M  V30 14 1 14 15
M  V30 15 1 15 16
M  V30 16 2 16 17
M  V30 17 1 17 18
M  V30 18 2 18 19
M  V30 19 1 19 20
M  V30 20 2 20 21
M  V30 21 1 14 22
M  V30 22 1 22 23
M  V30 23 1 22 24
M  V30 24 1 24 25
M  V30 25 1 25 26
M  V30 26 1 26 27
M  V30 27 2 27 28
M  V30 28 1 28 29
M  V30 29 2 29 30
M  V30 30 1 30 31
M  V30 31 2 31 32
M  V30 32 1 25 33
M  V30 33 1 33 34
M  V30 34 2 34 35
M  V30 35 1 34 36
M  V30 36 1 36 37
M  V30 37 1 37 38
M  V30 38 1 37 39
M  V30 39 1 36 40
M  V30 40 1 40 41
M  V30 41 1 41 42
M  V30 42 1 42 43
M  V30 43 1 43 44
M  V30 44 1 44 45
M  V30 45 2 45 46
M  V30 46 1 8 2
M  V30 47 1 21 16
M  V30 48 1 32 27
M  V30 49 1 45 40
M  V30 50 1 1 47
M  V30 51 1 1 48
M  V30 52 1 1 49
M  V30 53 1 3 50
M  V30 54 1 4 51
M  V30 55 1 5 52
M  V30 56 1 7 53
M  V30 57 1 7 54
M  V30 58 1 7 55
M  V30 59 1 10 56
M  V30 60 1 10 57
M  V30 61 1 13 58
M  V30 62 1 14 59 CFG=3
M  V30 63 1 15 60
M  V30 64 1 15 61
M  V30 65 1 17 62
M  V30 66 1 18 63
M  V30 67 1 19 64
M  V30 68 1 20 65
M  V30 69 1 21 66
M  V30 70 1 22 67 CFG=3
M  V30 71 1 23 68
M  V30 72 1 24 69
M  V30 73 1 24 70
M  V30 74 1 25 71 CFG=1
M  V30 75 1 26 72
M  V30 76 1 26 73
M  V30 77 1 28 74
M  V30 78 1 29 75
M  V30 79 1 30 76
M  V30 80 1 31 77
M  V30 81 1 32 78
M  V30 82 1 33 79
M  V30 83 1 36 80 CFG=3
M  V30 84 1 37 81
M  V30 85 1 38 82
M  V30 86 1 38 83
M  V30 87 1 38 84
M  V30 88 1 39 85
M  V30 89 1 39 86
M  V30 90 1 39 87
M  V30 91 1 41 88
M  V30 92 1 41 89
M  V30 93 1 42 90
M  V30 94 1 42 91
M  V30 95 1 43 92
M  V30 96 1 43 93
M  V30 97 1 44 94
M  V30 END BOND
M  V30 END CTAB
M  END
>  <Dataset>  (536) 
OralDrugs

>  <Ligand_Instance>  (536) 
nan

>  <PDB_ID>  (536) 
nan

>  <Standardized_SMILES>  (536) 
Cc1cccc(C)c1OCC(=O)N[C@@H](Cc1ccccc1)[C@@H](O)C[C@H](Cc1ccccc1)NC(=O)[C@H](C(C)C)N1CCCNC1=O

>  <Name>  (536) 
Lopinavir

>  <Pocket>  (536) 
nan

>  <ATP_Site>  (536) 
nan

>  <Peripheral>  (536) 
nan

>  <Num_H_Atoms_ProtBoundConf>  (536) 
nan

>  <Num_Resolved_Atoms>  (536) 
nan

>  <Num_Not_Resolved_Atoms>  (536) 
nan

$$$$
CHEMBL1200610
     RDKit          3D

  0  0  0  0  0  0  0  0  0  0999 V3000
M  V30 BEGIN CTAB
M  V30 COUNTS 40 42 0 0 0
M  V30 BEGIN ATOM
M  V30 1 N 1.032467 -4.713766 0.972066 0
M  V30 2 C 0.626089 -3.346910 1.235819 0 CFG=1
M  V30 3 C 1.821686 -2.447644 1.194170 0
M  V30 4 O 3.016418 -2.829400 0.961193 0
M  V30 5 N 1.527297 -1.068491 1.443641 0
M  V30 6 C 2.569308 -0.073288 1.438928 0 CFG=2
M  V30 7 C 2.436550 0.847405 2.599977 0
M  V30 8 O 2.810520 1.130968 3.762325 0
M  V30 9 N 1.468147 1.565261 1.827486 0
M  V30 10 C 0.305734 2.340628 1.649397 0
M  V30 11 C -0.296643 2.987743 2.813291 0
M  V30 12 O 0.200879 2.868027 3.975519 0
M  V30 13 O -1.438016 3.767345 2.732365 0
M  V30 14 C -0.251996 2.493727 0.443071 0
M  V30 15 Cl -1.706003 3.465249 0.228761 0
M  V30 16 C 0.287303 1.877604 -0.787166 0
M  V30 17 C 1.479911 1.018978 -0.591406 0
M  V30 18 C 2.228590 1.205366 0.665140 0 CFG=2
M  V30 19 C -0.481206 -2.891132 0.394808 0
M  V30 20 C -1.561779 -2.187699 0.924625 0
M  V30 21 C -2.637390 -1.729224 0.190025 0
M  V30 22 C -2.643035 -1.988923 -1.182177 0
M  V30 23 C -1.582651 -2.689102 -1.753737 0
M  V30 24 C -0.538768 -3.118803 -0.961208 0
M  V30 25 H 1.745758 -4.975572 1.681856 0
M  V30 26 H 0.181525 -5.305584 0.960522 0
M  V30 27 H 0.282707 -3.282708 2.307244 0
M  V30 28 H 0.559158 -0.710838 1.639662 0
M  V30 29 H 3.591383 -0.448507 1.232162 0
M  V30 30 H -1.465451 4.649788 3.257007 0
M  V30 31 H 0.521355 2.740111 -1.477470 0
M  V30 32 H -0.531589 1.325220 -1.318269 0
M  V30 33 H 1.151963 -0.053043 -0.712319 0
M  V30 34 H 2.189741 1.207643 -1.442836 0
M  V30 35 H 3.171421 1.816079 0.627425 0
M  V30 36 H -1.525756 -2.002816 1.994533 0
M  V30 37 H -3.405989 -1.196457 0.736115 0
M  V30 38 H -3.525119 -1.591387 -1.672170 0
M  V30 39 H -1.667513 -2.845785 -2.818449 0
M  V30 40 H 0.256474 -3.658511 -1.466097 0
M  V30 END ATOM
M  V30 BEGIN BOND
M  V30 1 1 1 2
M  V30 2 1 2 3
M  V30 3 2 3 4
M  V30 4 1 3 5
M  V30 5 1 5 6
M  V30 6 1 6 7
M  V30 7 2 7 8
M  V30 8 1 7 9
M  V30 9 1 9 10
M  V30 10 1 10 11
M  V30 11 2 11 12
M  V30 12 1 11 13
M  V30 13 2 10 14
M  V30 14 1 14 15
M  V30 15 1 14 16
M  V30 16 1 16 17
M  V30 17 1 17 18
M  V30 18 1 2 19
M  V30 19 2 19 20
M  V30 20 1 20 21
M  V30 21 2 21 22
M  V30 22 1 22 23
M  V30 23 2 23 24
M  V30 24 1 18 6
M  V30 25 1 24 19
M  V30 26 1 18 9
M  V30 27 1 1 25
M  V30 28 1 1 26
M  V30 29 1 2 27 CFG=1
M  V30 30 1 5 28
M  V30 31 1 6 29 CFG=3
M  V30 32 1 13 30
M  V30 33 1 16 31
M  V30 34 1 16 32
M  V30 35 1 17 33
M  V30 36 1 17 34
M  V30 37 1 18 35 CFG=3
M  V30 38 1 20 36
M  V30 39 1 21 37
M  V30 40 1 22 38
M  V30 41 1 23 39
M  V30 42 1 24 40
M  V30 END BOND
M  V30 END CTAB
M  END
>  <Dataset>  (537) 
OralDrugs

>  <Ligand_Instance>  (537) 
nan

>  <PDB_ID>  (537) 
nan

>  <Standardized_SMILES>  (537) 
N[C@@H](C(=O)N[C@@H]1C(=O)N2C(C(=O)O)=C(Cl)CC[C@H]12)c1ccccc1

>  <Name>  (537) 
Loracarbef

>  <Pocket>  (537) 
nan

>  <ATP_Site>  (537) 
nan

>  <Peripheral>  (537) 
nan

>  <Num_H_Atoms_ProtBoundConf>  (537) 
nan

>  <Num_Resolved_Atoms>  (537) 
nan

>  <Num_Not_Resolved_Atoms>  (537) 
nan

$$$$
CHEMBL580
     RDKit          3D

  0  0  0  0  0  0  0  0  0  0999 V3000
M  V30 BEGIN CTAB
M  V30 COUNTS 31 33 0 0 0
M  V30 BEGIN ATOM
M  V30 1 O -2.873531 -3.854220 1.038024 0
M  V30 2 C -1.958908 -3.161024 0.482216 0
M  V30 3 N -0.646841 -3.588578 0.888494 0
M  V30 4 C 0.557633 -2.815292 0.739988 0
M  V30 5 C 1.722554 -3.566988 0.901999 0
M  V30 6 C 2.951636 -2.929846 0.781445 0
M  V30 7 C 3.035999 -1.576402 0.506252 0
M  V30 8 Cl 4.584999 -0.767598 0.353152 0
M  V30 9 C 1.888994 -0.830249 0.345504 0
M  V30 10 C 0.671057 -1.448887 0.462368 0
M  V30 11 C -0.456330 -0.512655 0.263014 0
M  V30 12 C -0.119342 0.894088 0.544246 0
M  V30 13 C 0.130083 1.909810 -0.326930 0
M  V30 14 C 0.429208 3.164119 0.166111 0
M  V30 15 C 0.481588 3.413676 1.521760 0
M  V30 16 C 0.229563 2.387538 2.409027 0
M  V30 17 C -0.071685 1.124400 1.916939 0
M  V30 18 Cl -0.368697 -0.080127 3.171255 0
M  V30 19 N -1.670990 -0.803997 -0.122626 0
M  V30 20 C -2.290585 -2.055989 -0.464345 0
M  V30 21 O -3.686345 -1.898849 -0.381637 0
M  V30 22 H -0.498537 -4.525278 1.331803 0
M  V30 23 H 1.625128 -4.627025 1.117319 0
M  V30 24 H 3.842891 -3.528425 0.910163 0
M  V30 25 H 1.881636 0.230767 0.129225 0
M  V30 26 H 0.064532 1.613158 -1.360872 0
M  V30 27 H 0.620520 3.941016 -0.589562 0
M  V30 28 H 0.722069 4.420844 1.865954 0
M  V30 29 H 0.283389 2.635776 3.454082 0
M  V30 30 H -1.991720 -2.407249 -1.472067 0
M  V30 31 H -3.935331 -1.280826 0.333163 0
M  V30 END ATOM
M  V30 BEGIN BOND
M  V30 1 2 1 2
M  V30 2 1 2 3
M  V30 3 1 3 4
M  V30 4 2 4 5
M  V30 5 1 5 6
M  V30 6 2 6 7
M  V30 7 1 7 8
M  V30 8 1 7 9
M  V30 9 2 9 10
M  V30 10 1 10 11
M  V30 11 1 11 12
M  V30 12 2 12 13
M  V30 13 1 13 14
M  V30 14 2 14 15
M  V30 15 1 15 16
M  V30 16 2 16 17
M  V30 17 1 17 18
M  V30 18 2 11 19
M  V30 19 1 19 20
M  V30 20 1 20 21
M  V30 21 1 20 2
M  V30 22 1 10 4
M  V30 23 1 17 12
M  V30 24 1 3 22
M  V30 25 1 5 23
M  V30 26 1 6 24
M  V30 27 1 9 25
M  V30 28 1 13 26
M  V30 29 1 14 27
M  V30 30 1 15 28
M  V30 31 1 16 29
M  V30 32 1 20 30
M  V30 33 1 21 31
M  V30 END BOND
M  V30 END CTAB
M  END
>  <Dataset>  (538) 
OralDrugs

>  <Ligand_Instance>  (538) 
nan

>  <PDB_ID>  (538) 
nan

>  <Standardized_SMILES>  (538) 
O=C1Nc2ccc(Cl)cc2C(c2ccccc2Cl)=NC1O

>  <Name>  (538) 
Lorazepam

>  <Pocket>  (538) 
nan

>  <ATP_Site>  (538) 
nan

>  <Peripheral>  (538) 
nan

>  <Num_H_Atoms_ProtBoundConf>  (538) 
nan

>  <Num_Resolved_Atoms>  (538) 
nan

>  <Num_Not_Resolved_Atoms>  (538) 
nan

$$$$
CHEMBL2095211
     RDKit          3D

  0  0  0  0  0  0  0  0  0  0999 V3000
M  V30 BEGIN CTAB
M  V30 COUNTS 27 28 0 0 0
M  V30 BEGIN ATOM
M  V30 1 C 0.610145 1.894130 1.323514 0
M  V30 2 C 1.255698 0.522641 1.202388 0 CFG=1
M  V30 3 C 1.051367 -0.214743 2.516053 0
M  V30 4 N -0.376235 -0.467264 2.598878 0
M  V30 5 C -0.545234 -1.896323 2.556626 0
M  V30 6 C -0.109107 -2.473003 1.253365 0
M  V30 7 C 0.045665 -1.509184 0.156793 0
M  V30 8 C -0.494970 -2.001761 -1.036074 0
M  V30 9 C -0.500122 -1.330546 -2.228783 0
M  V30 10 C 0.070431 -0.086097 -2.236363 0
M  V30 11 Cl 0.076478 0.796185 -3.755502 0
M  V30 12 C 0.611932 0.429836 -1.081039 0
M  V30 13 C 0.614994 -0.253033 0.124102 0
M  V30 14 H 0.943556 2.552557 0.511148 0
M  V30 15 H -0.488014 1.858457 1.323953 0
M  V30 16 H 0.948247 2.359371 2.276880 0
M  V30 17 H 2.343313 0.725149 1.023005 0
M  V30 18 H 1.420198 0.363532 3.383299 0
M  V30 19 H 1.662822 -1.138382 2.456827 0
M  V30 20 H -0.927839 -0.071065 1.825938 0
M  V30 21 H 0.139705 -2.296709 3.360463 0
M  V30 22 H -1.558134 -2.202457 2.888985 0
M  V30 23 H -0.909031 -3.214721 0.960262 0
M  V30 24 H 0.804118 -3.127763 1.366118 0
M  V30 25 H -0.943365 -2.993004 -1.006960 0
M  V30 26 H -0.943443 -1.796242 -3.098936 0
M  V30 27 H 1.042486 1.426074 -1.186706 0
M  V30 END ATOM
M  V30 BEGIN BOND
M  V30 1 1 1 2
M  V30 2 1 2 3
M  V30 3 1 3 4
M  V30 4 1 4 5
M  V30 5 1 5 6
M  V30 6 1 6 7
M  V30 7 2 7 8
M  V30 8 1 8 9
M  V30 9 2 9 10
M  V30 10 1 10 11
M  V30 11 1 10 12
M  V30 12 2 12 13
M  V30 13 1 13 2
M  V30 14 1 13 7
M  V30 15 1 1 14
M  V30 16 1 1 15
M  V30 17 1 1 16
M  V30 18 1 2 17 CFG=3
M  V30 19 1 3 18
M  V30 20 1 3 19
M  V30 21 1 4 20
M  V30 22 1 5 21
M  V30 23 1 5 22
M  V30 24 1 6 23
M  V30 25 1 6 24
M  V30 26 1 8 25
M  V30 27 1 9 26
M  V30 28 1 12 27
M  V30 END BOND
M  V30 END CTAB
M  END
>  <Dataset>  (539) 
OralDrugs

>  <Ligand_Instance>  (539) 
nan

>  <PDB_ID>  (539) 
nan

>  <Standardized_SMILES>  (539) 
C[C@H]1CNCCc2ccc(Cl)cc21

>  <Name>  (539) 
Lorcaserin Hydrochloride

>  <Pocket>  (539) 
nan

>  <ATP_Site>  (539) 
nan

>  <Peripheral>  (539) 
nan

>  <Num_H_Atoms_ProtBoundConf>  (539) 
nan

>  <Num_Resolved_Atoms>  (539) 
nan

>  <Num_Not_Resolved_Atoms>  (539) 
nan

$$$$
CHEMBL3286830
     RDKit          3D

  0  0  0  0  0  0  0  0  0  0999 V3000
M  V30 BEGIN CTAB
M  V30 COUNTS 49 52 0 0 0
M  V30 BEGIN ATOM
M  V30 1 C -1.184843 -3.203235 3.533200 0
M  V30 2 C -0.653669 -2.649203 2.258161 0 CFG=1
M  V30 3 O 0.765693 -2.827043 2.126981 0
M  V30 4 C 1.583952 -1.943391 1.458494 0
M  V30 5 C 1.219213 -0.664804 1.178411 0
M  V30 6 C 1.844527 0.355089 0.531950 0
M  V30 7 C 3.098583 -0.006863 0.089158 0
M  V30 8 N 3.570053 -1.263830 0.317728 0
M  V30 9 C 2.845109 -2.198428 0.975323 0
M  V30 10 N 3.383839 -3.521524 1.195412 0
M  V30 11 C 1.254236 1.668818 0.278744 0
M  V30 12 C 0.062890 2.013775 -0.271549 0
M  V30 13 N 0.137388 3.380766 -0.216065 0
M  V30 14 N 1.228053 3.831716 0.299014 0
M  V30 15 C 1.538593 5.266145 0.465612 0
M  V30 16 C 1.980844 2.775658 0.633720 0
M  V30 17 C 3.257395 2.955668 1.225633 0
M  V30 18 N 4.302326 3.087215 1.711999 0
M  V30 19 C -1.168429 1.475865 -0.865720 0
M  V30 20 N -1.753702 0.352063 -0.173773 0
M  V30 21 C -2.663908 0.734204 0.890943 0
M  V30 22 C -1.815904 -1.046986 -0.084705 0
M  V30 23 O -1.046685 -0.728399 -1.020973 0
M  V30 24 C -1.849534 -2.474025 -0.030021 0
M  V30 25 C -2.441686 -3.045520 -1.108465 0
M  V30 26 C -2.570467 -4.434727 -1.213613 0
M  V30 27 C -2.039975 -5.077753 -0.130518 0
M  V30 28 F -2.142165 -6.440058 -0.187351 0
M  V30 29 C -1.433223 -4.543431 0.978447 0
M  V30 30 C -1.333277 -3.183238 1.031536 0
M  V30 31 H -0.454683 -3.933539 3.945552 0
M  V30 32 H -1.294968 -2.377369 4.286364 0
M  V30 33 H -2.196553 -3.627231 3.381686 0
M  V30 34 H -0.835490 -1.560893 2.231470 0
M  V30 35 H 0.302636 -0.276035 1.520992 0
M  V30 36 H 3.686436 0.750762 -0.443991 0
M  V30 37 H 3.081376 -4.068016 0.353888 0
M  V30 38 H 3.935872 -3.849938 1.993014 0
M  V30 39 H 1.389932 5.831581 -0.457783 0
M  V30 40 H 0.915134 5.601387 1.309834 0
M  V30 41 H 2.588333 5.342694 0.765085 0
M  V30 42 H -1.997603 2.214939 -1.011499 0
M  V30 43 H -0.922121 1.194906 -1.943467 0
M  V30 44 H -3.664334 0.289398 0.827325 0
M  V30 45 H -2.814038 1.837613 0.970129 0
M  V30 46 H -2.181425 0.445408 1.855248 0
M  V30 47 H -2.829521 -2.426247 -1.931154 0
M  V30 48 H -3.030303 -4.941203 -2.043847 0
M  V30 49 H -1.061005 -5.200190 1.759041 0
M  V30 END ATOM
M  V30 BEGIN BOND
M  V30 1 1 1 2
M  V30 2 1 2 3
M  V30 3 1 3 4
M  V30 4 1 4 5
M  V30 5 2 5 6
M  V30 6 1 6 7
M  V30 7 2 7 8
M  V30 8 1 8 9
M  V30 9 1 9 10
M  V30 10 1 6 11
M  V30 11 1 11 12
M  V30 12 2 12 13
M  V30 13 1 13 14
M  V30 14 1 14 15
M  V30 15 1 14 16
M  V30 16 1 16 17
M  V30 17 3 17 18
M  V30 18 1 12 19
M  V30 19 1 19 20
M  V30 20 1 20 21
M  V30 21 1 20 22
M  V30 22 2 22 23
M  V30 23 1 22 24
M  V30 24 2 24 25
M  V30 25 1 25 26
M  V30 26 2 26 27
M  V30 27 1 27 28
M  V30 28 1 27 29
M  V30 29 2 29 30
M  V30 30 1 30 2
M  V30 31 2 9 4
M  V30 32 2 16 11
M  V30 33 1 30 24
M  V30 34 1 1 31
M  V30 35 1 1 32
M  V30 36 1 1 33
M  V30 37 1 2 34 CFG=1
M  V30 38 1 5 35
M  V30 39 1 7 36
M  V30 40 1 10 37
M  V30 41 1 10 38
M  V30 42 1 15 39
M  V30 43 1 15 40
M  V30 44 1 15 41
M  V30 45 1 19 42
M  V30 46 1 19 43
M  V30 47 1 21 44
M  V30 48 1 21 45
M  V30 49 1 21 46
M  V30 50 1 25 47
M  V30 51 1 26 48
M  V30 52 1 29 49
M  V30 END BOND
M  V30 END CTAB
M  END
>  <Dataset>  (540) 
OralDrugs

>  <Ligand_Instance>  (540) 
nan

>  <PDB_ID>  (540) 
nan

>  <Standardized_SMILES>  (540) 
C[C@H]1Oc2cc(cnc2N)-c2c(nn(C)c2C#N)CN(C)C(=O)c2ccc(F)cc21

>  <Name>  (540) 
Lorlatinib

>  <Pocket>  (540) 
nan

>  <ATP_Site>  (540) 
nan

>  <Peripheral>  (540) 
nan

>  <Num_H_Atoms_ProtBoundConf>  (540) 
nan

>  <Num_Resolved_Atoms>  (540) 
nan

>  <Num_Not_Resolved_Atoms>  (540) 
nan

$$$$
CHEMBL191
     RDKit          3D

  0  0  0  0  0  0  0  0  0  0999 V3000
M  V30 BEGIN CTAB
M  V30 COUNTS 53 56 0 0 0
M  V30 BEGIN ATOM
M  V30 1 C 4.513761 -2.536550 3.323302 0
M  V30 2 C 3.384729 -1.684857 2.776653 0
M  V30 3 C 2.813204 -0.736136 3.771867 0
M  V30 4 C 1.707974 0.068573 3.137373 0
M  V30 5 C 2.199312 0.886514 2.001533 0
M  V30 6 N 3.412349 1.011901 1.488944 0
M  V30 7 C 3.433597 1.853335 0.472646 0
M  V30 8 Cl 4.935457 2.165786 -0.351291 0
M  V30 9 C 2.122431 2.308927 0.318062 0
M  V30 10 C 1.850432 3.301644 -0.760638 0
M  V30 11 O 2.325536 4.575293 -0.348958 0
M  V30 12 N 1.377182 1.692264 1.279871 0
M  V30 13 C -0.025316 1.946082 1.376875 0
M  V30 14 C -0.902644 1.013947 0.654366 0
M  V30 15 C -1.517718 -0.005038 1.401074 0
M  V30 16 C -2.368521 -0.976223 0.917439 0
M  V30 17 C -2.652128 -0.954610 -0.439485 0
M  V30 18 C -3.556875 -1.954148 -0.972712 0
M  V30 19 C -4.810633 -1.405618 -1.239551 0
M  V30 20 C -5.847978 -2.190427 -1.716768 0
M  V30 21 C -5.568084 -3.529018 -1.908927 0
M  V30 22 C -4.319004 -4.038369 -1.636204 0
M  V30 23 C -3.274544 -3.280821 -1.163315 0
M  V30 24 C -1.953452 -3.830818 -0.934936 0
M  V30 25 N -1.795754 -5.168230 -0.929663 0
M  V30 26 N -0.551805 -5.521770 -0.672943 0
M  V30 27 N 0.097073 -4.390234 -0.511587 0
M  V30 28 N -0.730545 -3.364996 -0.666610 0
M  V30 29 C -2.076680 0.020847 -1.218718 0
M  V30 30 C -1.240457 0.956860 -0.677742 0
M  V30 31 H 5.127804 -2.037588 4.081573 0
M  V30 32 H 5.203099 -2.829986 2.477167 0
M  V30 33 H 4.129514 -3.485705 3.736837 0
M  V30 34 H 3.739496 -1.245910 1.832714 0
M  V30 35 H 2.575975 -2.426419 2.500547 0
M  V30 36 H 2.375593 -1.255040 4.655650 0
M  V30 37 H 3.607835 -0.062130 4.190592 0
M  V30 38 H 1.189640 0.698954 3.894501 0
M  V30 39 H 0.948285 -0.696733 2.804101 0
M  V30 40 H 2.441715 3.046306 -1.660957 0
M  V30 41 H 0.763783 3.414123 -0.964742 0
M  V30 42 H 3.302724 4.502557 -0.407194 0
M  V30 43 H -0.294904 2.973815 0.989687 0
M  V30 44 H -0.377951 1.993239 2.446613 0
M  V30 45 H -1.317559 -0.050659 2.482033 0
M  V30 46 H -2.785299 -1.713990 1.582324 0
M  V30 47 H -5.086515 -0.368755 -1.108162 0
M  V30 48 H -6.821073 -1.821213 -1.935467 0
M  V30 49 H -6.340796 -4.193630 -2.279364 0
M  V30 50 H -4.171672 -5.104422 -1.812264 0
M  V30 51 H -0.518200 -2.353813 -0.614419 0
M  V30 52 H -2.279089 0.066165 -2.295263 0
M  V30 53 H -0.807237 1.702739 -1.298861 0
M  V30 END ATOM
M  V30 BEGIN BOND
M  V30 1 1 1 2
M  V30 2 1 2 3
M  V30 3 1 3 4
M  V30 4 1 4 5
M  V30 5 2 5 6
M  V30 6 1 6 7
M  V30 7 1 7 8
M  V30 8 2 7 9
M  V30 9 1 9 10
M  V30 10 1 10 11
M  V30 11 1 9 12
M  V30 12 1 12 13
M  V30 13 1 13 14
M  V30 14 2 14 15
M  V30 15 1 15 16
M  V30 16 2 16 17
M  V30 17 1 17 18
M  V30 18 2 18 19
M  V30 19 1 19 20
M  V30 20 2 20 21
M  V30 21 1 21 22
M  V30 22 2 22 23
M  V30 23 1 23 24
M  V30 24 2 24 25
M  V30 25 1 25 26
M  V30 26 2 26 27
M  V30 27 1 27 28
M  V30 28 1 17 29
M  V30 29 2 29 30
M  V30 30 1 12 5
M  V30 31 1 30 14
M  V30 32 1 23 18
M  V30 33 1 28 24
M  V30 34 1 1 31
M  V30 35 1 1 32
M  V30 36 1 1 33
M  V30 37 1 2 34
M  V30 38 1 2 35
M  V30 39 1 3 36
M  V30 40 1 3 37
M  V30 41 1 4 38
M  V30 42 1 4 39
M  V30 43 1 10 40
M  V30 44 1 10 41
M  V30 45 1 11 42
M  V30 46 1 13 43
M  V30 47 1 13 44
M  V30 48 1 15 45
M  V30 49 1 16 46
M  V30 50 1 19 47
M  V30 51 1 20 48
M  V30 52 1 21 49
M  V30 53 1 22 50
M  V30 54 1 28 51
M  V30 55 1 29 52
M  V30 56 1 30 53
M  V30 END BOND
M  V30 END CTAB
M  END
>  <Dataset>  (541) 
OralDrugs

>  <Ligand_Instance>  (541) 
nan

>  <PDB_ID>  (541) 
nan

>  <Standardized_SMILES>  (541) 
CCCCc1nc(Cl)c(CO)n1Cc1ccc(-c2ccccc2-c2nnn[nH]2)cc1

>  <Name>  (541) 
Losartan

>  <Pocket>  (541) 
nan

>  <ATP_Site>  (541) 
nan

>  <Peripheral>  (541) 
nan

>  <Num_H_Atoms_ProtBoundConf>  (541) 
nan

>  <Num_Resolved_Atoms>  (541) 
nan

>  <Num_Not_Resolved_Atoms>  (541) 
nan

$$$$
CHEMBL831
     RDKit          3D

  0  0  0  0  0  0  0  0  0  0999 V3000
M  V30 BEGIN CTAB
M  V30 COUNTS 41 44 0 0 0
M  V30 BEGIN ATOM
M  V30 1 C -1.407534 -4.331204 2.991841 0
M  V30 2 N -0.052533 -3.890003 2.849933 0
M  V30 3 C 0.471852 -3.923263 1.521560 0
M  V30 4 C 0.071248 -2.770113 0.649460 0
M  V30 5 N -0.014526 -1.513796 1.369604 0
M  V30 6 C 0.152845 -0.305745 0.610914 0
M  V30 7 N -0.759516 0.000836 -0.276985 0
M  V30 8 C -0.822979 1.133844 -1.149073 0
M  V30 9 C -1.699040 0.882990 -2.202676 0
M  V30 10 C -1.879044 1.885254 -3.147606 0
M  V30 11 C -1.200709 3.094947 -3.033747 0
M  V30 12 C -0.331696 3.345897 -1.990083 0
M  V30 13 C -0.153935 2.348996 -1.051995 0
M  V30 14 O 0.744411 2.667345 -0.013852 0
M  V30 15 C 1.653468 1.814108 0.642271 0
M  V30 16 C 2.857258 2.380761 1.005408 0
M  V30 17 C 3.771241 1.574355 1.649747 0
M  V30 18 C 3.539708 0.246750 1.943157 0
M  V30 19 Cl 4.727711 -0.743963 2.763549 0
M  V30 20 C 2.298131 -0.255459 1.544107 0
M  V30 21 C 1.344548 0.486073 0.901601 0
M  V30 22 C -0.258183 -1.434856 2.798740 0
M  V30 23 C 0.236980 -2.654079 3.518966 0
M  V30 24 H -1.727277 -4.816229 2.048157 0
M  V30 25 H -1.442005 -5.134365 3.772996 0
M  V30 26 H -2.095842 -3.499585 3.288356 0
M  V30 27 H 0.094170 -4.850345 1.024690 0
M  V30 28 H 1.587988 -4.064985 1.558808 0
M  V30 29 H -0.972935 -3.003783 0.293317 0
M  V30 30 H 0.779539 -2.725663 -0.205598 0
M  V30 31 H -2.238700 -0.036169 -2.323160 0
M  V30 32 H -2.544816 1.794454 -4.017296 0
M  V30 33 H -1.324961 3.895653 -3.761277 0
M  V30 34 H 0.222049 4.264072 -1.849252 0
M  V30 35 H 3.011682 3.422301 0.763182 0
M  V30 36 H 4.733108 2.016828 1.942969 0
M  V30 37 H 2.101809 -1.288571 1.765288 0
M  V30 38 H 0.312023 -0.554101 3.185992 0
M  V30 39 H -1.341783 -1.329083 3.013661 0
M  V30 40 H -0.226810 -2.642426 4.524276 0
M  V30 41 H 1.335889 -2.583730 3.635128 0
M  V30 END ATOM
M  V30 BEGIN BOND
M  V30 1 1 1 2
M  V30 2 1 2 3
M  V30 3 1 3 4
M  V30 4 1 4 5
M  V30 5 1 5 6
M  V30 6 2 6 7
M  V30 7 1 7 8
M  V30 8 2 8 9
M  V30 9 1 9 10
M  V30 10 2 10 11
M  V30 11 1 11 12
M  V30 12 2 12 13
M  V30 13 1 13 14
M  V30 14 1 14 15
M  V30 15 2 15 16
M  V30 16 1 16 17
M  V30 17 2 17 18
M  V30 18 1 18 19
M  V30 19 1 18 20
M  V30 20 2 20 21
M  V30 21 1 5 22
M  V30 22 1 22 23
M  V30 23 1 23 2
M  V30 24 1 21 6
M  V30 25 1 13 8
M  V30 26 1 21 15
M  V30 27 1 1 24
M  V30 28 1 1 25
M  V30 29 1 1 26
M  V30 30 1 3 27
M  V30 31 1 3 28
M  V30 32 1 4 29
M  V30 33 1 4 30
M  V30 34 1 9 31
M  V30 35 1 10 32
M  V30 36 1 11 33
M  V30 37 1 12 34
M  V30 38 1 16 35
M  V30 39 1 17 36
M  V30 40 1 20 37
M  V30 41 1 22 38
M  V30 42 1 22 39
M  V30 43 1 23 40
M  V30 44 1 23 41
M  V30 END BOND
M  V30 END CTAB
M  END
>  <Dataset>  (542) 
OralDrugs

>  <Ligand_Instance>  (542) 
nan

>  <PDB_ID>  (542) 
nan

>  <Standardized_SMILES>  (542) 
CN1CCN(C2=Nc3ccccc3Oc3ccc(Cl)cc32)CC1

>  <Name>  (542) 
Loxapine

>  <Pocket>  (542) 
nan

>  <ATP_Site>  (542) 
nan

>  <Peripheral>  (542) 
nan

>  <Num_H_Atoms_ProtBoundConf>  (542) 
nan

>  <Num_Resolved_Atoms>  (542) 
nan

>  <Num_Not_Resolved_Atoms>  (542) 
nan

$$$$
CHEMBL1201134
     RDKit          3D

  0  0  0  0  0  0  0  0  0  0999 V3000
M  V30 BEGIN CTAB
M  V30 COUNTS 59 60 0 0 0
M  V30 BEGIN ATOM
M  V30 1 C 2.182213 -3.152356 4.270118 0
M  V30 2 C 1.914324 -2.822046 2.810088 0
M  V30 3 C 3.058147 -2.091161 2.148956 0
M  V30 4 C 3.400574 -0.790544 2.782802 0
M  V30 5 C 2.362032 0.244285 2.840055 0
M  V30 6 F 1.209112 -0.131467 3.504620 0
M  V30 7 F 2.880288 1.155606 3.851836 0
M  V30 8 C 2.144826 1.167573 1.711795 0 CFG=1
M  V30 9 O 3.365740 1.891659 1.552623 0
M  V30 10 C 1.875890 0.639739 0.357947 0
M  V30 11 C 0.454593 0.170111 0.135324 0
M  V30 12 C -0.501847 0.955136 0.949396 0 CFG=1
M  V30 13 C 0.157043 2.299118 1.270032 0 CFG=1
M  V30 14 C -0.977246 2.996178 1.988121 0
M  V30 15 C -2.160934 2.544819 1.211737 0
M  V30 16 O -3.207678 3.142058 1.440231 0
M  V30 17 C -1.759106 1.413562 0.297951 0 CFG=2
M  V30 18 C -2.889983 0.453758 0.260885 0
M  V30 19 C -2.682326 -0.816292 -0.488293 0
M  V30 20 C -2.439801 -0.481287 -1.924079 0
M  V30 21 C -2.188515 -1.681583 -2.813540 0
M  V30 22 C -1.009461 -2.484927 -2.388090 0
M  V30 23 C -0.810207 -3.642212 -3.329471 0
M  V30 24 C -2.019208 -4.494941 -3.305791 0
M  V30 25 O -3.134474 -4.364529 -3.845957 0
M  V30 26 O -2.074735 -5.683166 -2.599091 0
M  V30 27 O 1.207529 2.108828 2.118581 0
M  V30 28 H 3.235122 -2.893828 4.549635 0
M  V30 29 H 2.071386 -4.231891 4.498056 0
M  V30 30 H 1.437344 -2.660132 4.956165 0
M  V30 31 H 1.825972 -3.797064 2.285634 0
M  V30 32 H 0.926577 -2.327670 2.679881 0
M  V30 33 H 3.926995 -2.775803 2.262835 0
M  V30 34 H 2.856319 -2.085898 1.068370 0
M  V30 35 H 3.811179 -1.007102 3.795894 0
M  V30 36 H 4.266129 -0.377107 2.208491 0
M  V30 37 H 3.975087 1.356209 0.947912 0
M  V30 38 H 1.955729 1.555924 -0.323342 0
M  V30 39 H 2.656277 -0.009777 -0.000784 0
M  V30 40 H 0.213859 0.292432 -0.938511 0
M  V30 41 H 0.379949 -0.945471 0.324689 0
M  V30 42 H -0.821468 0.441969 1.886637 0
M  V30 43 H 0.409253 2.778643 0.311392 0
M  V30 44 H -0.847992 4.090882 2.016254 0
M  V30 45 H -1.004680 2.543747 3.020153 0
M  V30 46 H -1.500759 1.797338 -0.707738 0
M  V30 47 H -3.240771 0.193478 1.283834 0
M  V30 48 H -3.759356 0.984562 -0.218309 0
M  V30 49 H -3.643258 -1.402155 -0.388125 0
M  V30 50 H -1.922629 -1.424204 -0.002596 0
M  V30 51 H -1.730373 0.292642 -2.152180 0
M  V30 52 H -3.440662 -0.078384 -2.301505 0
M  V30 53 H -1.952594 -1.246600 -3.825269 0
M  V30 54 H -3.096615 -2.279489 -2.908408 0
M  V30 55 H -1.128238 -2.928848 -1.371753 0
M  V30 56 H -0.085252 -1.873175 -2.351638 0
M  V30 57 H 0.047163 -4.283251 -3.007141 0
M  V30 58 H -0.659266 -3.283649 -4.380864 0
M  V30 59 H -2.848351 -5.977184 -2.016908 0
M  V30 END ATOM
M  V30 BEGIN BOND
M  V30 1 1 1 2
M  V30 2 1 2 3
M  V30 3 1 3 4
M  V30 4 1 4 5
M  V30 5 1 5 6
M  V30 6 1 5 7
M  V30 7 1 5 8
M  V30 8 1 8 9 CFG=3
M  V30 9 1 8 10
M  V30 10 1 10 11
M  V30 11 1 11 12
M  V30 12 1 12 13
M  V30 13 1 13 14
M  V30 14 1 14 15
M  V30 15 2 15 16
M  V30 16 1 15 17
M  V30 17 1 17 18
M  V30 18 1 18 19
M  V30 19 1 19 20
M  V30 20 1 20 21
M  V30 21 1 21 22
M  V30 22 1 22 23
M  V30 23 1 23 24
M  V30 24 2 24 25
M  V30 25 1 24 26
M  V30 26 1 13 27
M  V30 27 1 27 8
M  V30 28 1 17 12
M  V30 29 1 1 28
M  V30 30 1 1 29
M  V30 31 1 1 30
M  V30 32 1 2 31
M  V30 33 1 2 32
M  V30 34 1 3 33
M  V30 35 1 3 34
M  V30 36 1 4 35
M  V30 37 1 4 36
M  V30 38 1 9 37
M  V30 39 1 10 38
M  V30 40 1 10 39
M  V30 41 1 11 40
M  V30 42 1 11 41
M  V30 43 1 12 42 CFG=1
M  V30 44 1 13 43 CFG=3
M  V30 45 1 14 44
M  V30 46 1 14 45
M  V30 47 1 17 46 CFG=3
M  V30 48 1 18 47
M  V30 49 1 18 48
M  V30 50 1 19 49
M  V30 51 1 19 50
M  V30 52 1 20 51
M  V30 53 1 20 52
M  V30 54 1 21 53
M  V30 55 1 21 54
M  V30 56 1 22 55
M  V30 57 1 22 56
M  V30 58 1 23 57
M  V30 59 1 23 58
M  V30 60 1 26 59
M  V30 END BOND
M  V30 END CTAB
M  END
>  <Dataset>  (543) 
OralDrugs

>  <Ligand_Instance>  (543) 
nan

>  <PDB_ID>  (543) 
nan

>  <Standardized_SMILES>  (543) 
CCCCC(F)(F)[C@@]1(O)CC[C@H]2[C@@H](CC(=O)[C@@H]2CCCCCCC(=O)O)O1

>  <Name>  (543) 
Lubiprostone

>  <Pocket>  (543) 
nan

>  <ATP_Site>  (543) 
nan

>  <Peripheral>  (543) 
nan

>  <Num_H_Atoms_ProtBoundConf>  (543) 
nan

>  <Num_Resolved_Atoms>  (543) 
nan

>  <Num_Not_Resolved_Atoms>  (543) 
nan

$$$$
CHEMBL2103870
     RDKit          3D

  0  0  0  0  0  0  0  0  0  0999 V3000
M  V30 BEGIN CTAB
M  V30 COUNTS 51 55 0 0 0
M  V30 BEGIN ATOM
M  V30 1 C 1.284345 -4.969803 2.225760 0
M  V30 2 C 0.785649 -3.612005 2.551401 0
M  V30 3 C 1.436979 -2.938875 3.562583 0
M  V30 4 C 1.012736 -1.670042 3.902192 0
M  V30 5 C -0.052401 -1.188576 3.173792 0
M  V30 6 N -0.572234 0.131558 3.442445 0
M  V30 7 C 0.165250 0.961246 2.561364 0
M  V30 8 O 1.062387 0.542171 1.751494 0
M  V30 9 C 0.159479 2.447364 2.294033 0
M  V30 10 C 0.742744 2.792874 0.969996 0
M  V30 11 C 1.653101 3.786349 0.684238 0
M  V30 12 C 2.090696 3.971118 -0.611952 0
M  V30 13 C 1.634177 3.176776 -1.641794 0
M  V30 14 C 0.716562 2.170979 -1.372954 0
M  V30 15 C 0.266792 1.974591 -0.065407 0
M  V30 16 O 0.413983 1.512343 -2.579946 0
M  V30 17 C 1.542244 1.751520 -3.432444 0
M  V30 18 F 2.617446 0.958092 -3.038135 0
M  V30 19 F 1.249144 1.652415 -4.755540 0
M  V30 20 O 1.855750 3.087507 -3.020831 0
M  V30 21 C 0.441596 3.369190 3.407698 0
M  V30 22 C -0.933405 3.274144 2.837707 0
M  V30 23 N -0.672124 -1.863487 2.191639 0
M  V30 24 C -0.279105 -3.116478 1.831561 0
M  V30 25 C -0.970957 -3.814063 0.757078 0
M  V30 26 C -1.430480 -5.092706 0.668584 0
M  V30 27 C -2.058992 -5.553666 -0.454721 0
M  V30 28 C -2.242110 -4.726578 -1.530555 0
M  V30 29 C -1.792474 -3.406768 -1.497466 0
M  V30 30 C -1.995225 -2.538460 -2.655137 0
M  V30 31 O -1.579070 -1.336373 -2.608496 0
M  V30 32 O -2.633780 -3.036286 -3.778256 0
M  V30 33 C -1.163553 -2.976672 -0.348844 0
M  V30 34 H 2.374415 -5.032226 2.435473 0
M  V30 35 H 0.748081 -5.700159 2.884241 0
M  V30 36 H 1.148656 -5.264700 1.184912 0
M  V30 37 H 2.262935 -3.367446 4.094488 0
M  V30 38 H 1.452626 -1.071449 4.668344 0
M  V30 39 H -1.222358 0.755895 3.965714 0
M  V30 40 H 1.975974 4.375068 1.525098 0
M  V30 41 H 2.803924 4.749747 -0.828695 0
M  V30 42 H -0.447940 1.176352 0.084993 0
M  V30 43 H 0.917874 4.354441 3.252890 0
M  V30 44 H 0.602792 2.999530 4.445303 0
M  V30 45 H -1.376622 4.131424 2.327111 0
M  V30 46 H -1.693847 2.717027 3.452081 0
M  V30 47 H -1.242593 -5.666787 1.563779 0
M  V30 48 H -2.381793 -6.592678 -0.407498 0
M  V30 49 H -2.734145 -5.095147 -2.405594 0
M  V30 50 H -2.852213 -2.383275 -4.531091 0
M  V30 51 H -0.843210 -1.931720 -0.407974 0
M  V30 END ATOM
M  V30 BEGIN BOND
M  V30 1 1 1 2
M  V30 2 2 2 3
M  V30 3 1 3 4
M  V30 4 2 4 5
M  V30 5 1 5 6
M  V30 6 1 6 7
M  V30 7 2 7 8
M  V30 8 1 7 9
M  V30 9 1 9 10
M  V30 10 2 10 11
M  V30 11 1 11 12
M  V30 12 2 12 13
M  V30 13 1 13 14
M  V30 14 2 14 15
M  V30 15 1 14 16
M  V30 16 1 16 17
M  V30 17 1 17 18
M  V30 18 1 17 19
M  V30 19 1 17 20
M  V30 20 1 9 21
M  V30 21 1 21 22
M  V30 22 1 5 23
M  V30 23 2 23 24
M  V30 24 1 24 25
M  V30 25 2 25 26
M  V30 26 1 26 27
M  V30 27 2 27 28
M  V30 28 1 28 29
M  V30 29 1 29 30
M  V30 30 2 30 31
M  V30 31 1 30 32
M  V30 32 2 29 33
M  V30 33 1 24 2
M  V30 34 1 33 25
M  V30 35 1 22 9
M  V30 36 1 15 10
M  V30 37 1 20 13
M  V30 38 1 1 34
M  V30 39 1 1 35
M  V30 40 1 1 36
M  V30 41 1 3 37
M  V30 42 1 4 38
M  V30 43 1 6 39
M  V30 44 1 11 40
M  V30 45 1 12 41
M  V30 46 1 15 42
M  V30 47 1 21 43
M  V30 48 1 21 44
M  V30 49 1 22 45
M  V30 50 1 22 46
M  V30 51 1 26 47
M  V30 52 1 27 48
M  V30 53 1 28 49
M  V30 54 1 32 50
M  V30 55 1 33 51
M  V30 END BOND
M  V30 END CTAB
M  END
>  <Dataset>  (544) 
OralDrugs

>  <Ligand_Instance>  (544) 
nan

>  <PDB_ID>  (544) 
nan

>  <Standardized_SMILES>  (544) 
Cc1ccc(NC(=O)C2(c3ccc4c(c3)OC(F)(F)O4)CC2)nc1-c1cccc(C(=O)O)c1

>  <Name>  (544) 
Lumacaftor

>  <Pocket>  (544) 
nan

>  <ATP_Site>  (544) 
nan

>  <Peripheral>  (544) 
nan

>  <Num_H_Atoms_ProtBoundConf>  (544) 
nan

>  <Num_Resolved_Atoms>  (544) 
nan

>  <Num_Not_Resolved_Atoms>  (544) 
nan

$$$$
CHEMBL3306803
     RDKit          3D

  0  0  0  0  0  0  0  0  0  0999 V3000
M  V30 BEGIN CTAB
M  V30 COUNTS 57 61 0 0 0
M  V30 BEGIN ATOM
M  V30 1 C 0.353718 -2.472372 4.284388 0
M  V30 2 N 0.905583 -1.927572 3.060288 0
M  V30 3 C 1.011414 -2.795102 1.896431 0
M  V30 4 C 1.631549 -2.176465 0.700661 0
M  V30 5 N 2.222204 -0.874577 0.925368 0
M  V30 6 C 1.967666 -0.028887 2.008243 0
M  V30 7 C 2.443138 1.249949 1.805424 0
M  V30 8 C 2.170819 2.049266 2.897191 0
M  V30 9 C 1.515445 1.644437 4.039013 0
M  V30 10 C 1.068642 0.317630 4.149483 0
M  V30 11 C 1.306467 -0.542432 3.093930 0
M  V30 12 C 3.062142 1.271307 0.464039 0 CFG=2
M  V30 13 C 1.996004 1.925309 -0.464757 0
M  V30 14 N 1.021731 0.848249 -0.550308 0
M  V30 15 C -0.339573 1.267390 -0.618048 0
M  V30 16 C -1.183558 0.018303 -0.423230 0
M  V30 17 C -2.684340 0.338760 -0.485789 0
M  V30 18 C -3.430370 -0.931269 -0.220542 0
M  V30 19 O -3.744464 -1.065515 0.993218 0
M  V30 20 C -3.781336 -1.932441 -1.207602 0
M  V30 21 C -3.471543 -1.898345 -2.543153 0
M  V30 22 C -3.883983 -2.940016 -3.323303 0
M  V30 23 C -4.600829 -4.065644 -2.931371 0
M  V30 24 F -4.967054 -5.048096 -3.772706 0
M  V30 25 C -4.885781 -4.046273 -1.571172 0
M  V30 26 C -4.499557 -3.030868 -0.731314 0
M  V30 27 C 1.457844 0.086800 -1.707708 0
M  V30 28 C 2.854745 -0.409609 -1.378673 0
M  V30 29 C 3.180174 -0.182511 0.082900 0 CFG=2
M  V30 30 H 1.036171 -2.370643 5.152901 0
M  V30 31 H -0.656034 -2.036490 4.504164 0
M  V30 32 H 0.169195 -3.555086 4.145959 0
M  V30 33 H 1.657295 -3.651452 2.245162 0
M  V30 34 H -0.009642 -3.194394 1.620529 0
M  V30 35 H 2.389772 -2.869760 0.273546 0
M  V30 36 H 0.848938 -2.106048 -0.103755 0
M  V30 37 H 2.529714 3.086150 2.797449 0
M  V30 38 H 1.330901 2.317207 4.866678 0
M  V30 39 H 0.542397 -0.084130 5.022455 0
M  V30 40 H 4.000393 1.813554 0.400914 0
M  V30 41 H 2.517050 2.140328 -1.398007 0
M  V30 42 H 1.643284 2.834135 0.002700 0
M  V30 43 H -0.550946 1.950796 0.225963 0
M  V30 44 H -0.613829 1.789817 -1.534538 0
M  V30 45 H -0.907516 -0.525833 0.485992 0
M  V30 46 H -1.043362 -0.715122 -1.257246 0
M  V30 47 H -2.880556 1.097885 0.270782 0
M  V30 48 H -2.864711 0.739235 -1.503937 0
M  V30 49 H -2.923774 -1.066696 -2.899377 0
M  V30 50 H -3.610760 -2.863952 -4.380637 0
M  V30 51 H -5.441912 -4.883829 -1.155481 0
M  V30 52 H -4.779044 -3.123191 0.325997 0
M  V30 53 H 0.788382 -0.692344 -2.040953 0
M  V30 54 H 1.556742 0.812402 -2.539728 0
M  V30 55 H 2.852703 -1.498757 -1.544894 0
M  V30 56 H 3.607534 0.032774 -2.053143 0
M  V30 57 H 4.176730 -0.539712 0.290692 0
M  V30 END ATOM
M  V30 BEGIN BOND
M  V30 1 1 1 2
M  V30 2 1 2 3
M  V30 3 1 3 4
M  V30 4 1 4 5
M  V30 5 1 5 6
M  V30 6 2 6 7
M  V30 7 1 7 8
M  V30 8 2 8 9
M  V30 9 1 9 10
M  V30 10 2 10 11
M  V30 11 1 7 12
M  V30 12 1 12 13
M  V30 13 1 13 14
M  V30 14 1 14 15
M  V30 15 1 15 16
M  V30 16 1 16 17
M  V30 17 1 17 18
M  V30 18 2 18 19
M  V30 19 1 18 20
M  V30 20 2 20 21
M  V30 21 1 21 22
M  V30 22 2 22 23
M  V30 23 1 23 24
M  V30 24 1 23 25
M  V30 25 2 25 26
M  V30 26 1 14 27
M  V30 27 1 27 28
M  V30 28 1 28 29
M  V30 29 1 11 2
M  V30 30 1 29 12
M  V30 31 1 29 5
M  V30 32 1 11 6
M  V30 33 1 26 20
M  V30 34 1 1 30
M  V30 35 1 1 31
M  V30 36 1 1 32
M  V30 37 1 3 33
M  V30 38 1 3 34
M  V30 39 1 4 35
M  V30 40 1 4 36
M  V30 41 1 8 37
M  V30 42 1 9 38
M  V30 43 1 10 39
M  V30 44 1 12 40 CFG=1
M  V30 45 1 13 41
M  V30 46 1 13 42
M  V30 47 1 15 43
M  V30 48 1 15 44
M  V30 49 1 16 45
M  V30 50 1 16 46
M  V30 51 1 17 47
M  V30 52 1 17 48
M  V30 53 1 21 49
M  V30 54 1 22 50
M  V30 55 1 25 51
M  V30 56 1 26 52
M  V30 57 1 27 53
M  V30 58 1 27 54
M  V30 59 1 28 55
M  V30 60 1 28 56
M  V30 61 1 29 57 CFG=3
M  V30 END BOND
M  V30 END CTAB
M  END
>  <Dataset>  (545) 
OralDrugs

>  <Ligand_Instance>  (545) 
nan

>  <PDB_ID>  (545) 
nan

>  <Standardized_SMILES>  (545) 
CN1CCN2c3c(cccc31)[C@@H]1CN(CCCC(=O)c3ccc(F)cc3)CC[C@@H]12

>  <Name>  (545) 
Lumateperone

>  <Pocket>  (545) 
nan

>  <ATP_Site>  (545) 
nan

>  <Peripheral>  (545) 
nan

>  <Num_H_Atoms_ProtBoundConf>  (545) 
nan

>  <Num_Resolved_Atoms>  (545) 
nan

>  <Num_Not_Resolved_Atoms>  (545) 
nan

$$$$
CHEMBL38827
     RDKit          3D

  0  0  0  0  0  0  0  0  0  0999 V3000
M  V30 BEGIN CTAB
M  V30 COUNTS 67 70 0 0 0
M  V30 BEGIN ATOM
M  V30 1 C 2.381786 -0.792185 2.546398 0
M  V30 2 C 2.290097 -2.283812 2.552581 0
M  V30 3 C 1.284274 -2.783057 1.530295 0
M  V30 4 C 1.713387 -2.348358 0.173578 0
M  V30 5 N 0.828332 -2.805618 -0.907379 0
M  V30 6 C 0.910442 -4.211443 -1.087145 0
M  V30 7 C -0.208855 -4.931753 -1.738804 0
M  V30 8 C -0.617974 -4.542409 -3.114122 0
M  V30 9 C -1.753671 -5.469440 -3.603846 0
M  V30 10 C 1.068894 -1.993973 -2.057383 0
M  V30 11 C 0.310898 -0.730327 -2.111037 0
M  V30 12 O 0.721448 -0.023785 -3.330665 0
M  V30 13 C 0.379142 0.207456 -1.022934 0
M  V30 14 C 1.382142 1.179702 -1.129996 0
M  V30 15 C 1.561058 2.207940 -0.190188 0
M  V30 16 Cl 2.879744 3.356740 -0.474964 0
M  V30 17 C 0.685074 2.237845 0.887894 0
M  V30 18 C -0.285067 1.277548 0.966736 0
M  V30 19 C -0.446443 0.289676 0.055906 0
M  V30 20 C -1.549303 -0.536722 0.499650 0
M  V30 21 C -2.129496 -1.661463 -0.024033 0
M  V30 22 C -3.186014 -2.297340 0.586536 0
M  V30 23 C -3.691388 -1.795953 1.772520 0
M  V30 24 Cl -5.031778 -2.555339 2.601699 0
M  V30 25 C -3.123969 -0.672357 2.312252 0
M  V30 26 C -2.066711 -0.054249 1.680201 0
M  V30 27 C -1.264419 1.116460 1.992011 0
M  V30 28 C -1.528182 1.896497 3.011582 0
M  V30 29 C -0.907367 3.149964 3.378578 0
M  V30 30 C -1.212666 4.136442 2.422079 0
M  V30 31 C -0.721787 5.437844 2.567917 0
M  V30 32 C 0.062472 5.725990 3.664065 0
M  V30 33 Cl 0.679215 7.375019 3.839582 0
M  V30 34 C 0.354111 4.750437 4.593670 0
M  V30 35 C -0.129835 3.467756 4.450096 0
M  V30 36 H 2.838057 -0.378405 1.627699 0
M  V30 37 H 3.069342 -0.536304 3.412810 0
M  V30 38 H 1.401328 -0.301624 2.678350 0
M  V30 39 H 3.279495 -2.755732 2.326550 0
M  V30 40 H 1.973986 -2.668271 3.539313 0
M  V30 41 H 1.223435 -3.872493 1.689799 0
M  V30 42 H 0.306528 -2.288638 1.818486 0
M  V30 43 H 1.868072 -1.288756 0.113108 0
M  V30 44 H 2.708266 -2.834632 -0.048586 0
M  V30 45 H 1.104457 -4.748879 -0.113597 0
M  V30 46 H 1.847839 -4.475653 -1.681068 0
M  V30 47 H 0.005084 -6.049365 -1.794970 0
M  V30 48 H -1.082414 -4.879767 -1.022912 0
M  V30 49 H -1.041607 -3.501793 -3.083672 0
M  V30 50 H 0.152087 -4.582892 -3.869963 0
M  V30 51 H -2.326715 -5.734181 -2.706059 0
M  V30 52 H -1.354376 -6.391046 -4.047287 0
M  V30 53 H -2.364757 -4.868243 -4.286213 0
M  V30 54 H 0.933653 -2.555026 -2.995075 0
M  V30 55 H 2.208936 -1.731572 -2.068325 0
M  V30 56 H -0.752060 -1.013913 -2.383352 0
M  V30 57 H 0.379381 -0.557238 -4.089325 0
M  V30 58 H 2.078747 1.160378 -1.983324 0
M  V30 59 H 0.977306 3.055754 1.514079 0
M  V30 60 H -1.855336 -2.176103 -0.917609 0
M  V30 61 H -3.697777 -3.193618 0.232633 0
M  V30 62 H -3.483594 -0.244159 3.234483 0
M  V30 63 H -2.269652 1.743050 3.777145 0
M  V30 64 H -1.825232 4.011517 1.516843 0
M  V30 65 H -0.940931 6.217438 1.844500 0
M  V30 66 H 0.969172 4.968552 5.458855 0
M  V30 67 H 0.042450 2.647662 5.118130 0
M  V30 END ATOM
M  V30 BEGIN BOND
M  V30 1 1 1 2
M  V30 2 1 2 3
M  V30 3 1 3 4
M  V30 4 1 4 5
M  V30 5 1 5 6
M  V30 6 1 6 7
M  V30 7 1 7 8
M  V30 8 1 8 9
M  V30 9 1 5 10
M  V30 10 1 10 11
M  V30 11 1 11 12
M  V30 12 1 11 13
M  V30 13 2 13 14
M  V30 14 1 14 15
M  V30 15 1 15 16
M  V30 16 2 15 17
M  V30 17 1 17 18
M  V30 18 2 18 19
M  V30 19 1 19 20
M  V30 20 2 20 21
M  V30 21 1 21 22
M  V30 22 2 22 23
M  V30 23 1 23 24
M  V30 24 1 23 25
M  V30 25 2 25 26
M  V30 26 1 26 27
M  V30 27 2 27 28
M  V30 28 1 28 29
M  V30 29 2 29 30
M  V30 30 1 30 31
M  V30 31 2 31 32
M  V30 32 1 32 33
M  V30 33 1 32 34
M  V30 34 2 34 35
M  V30 35 1 19 13
M  V30 36 1 26 20
M  V30 37 1 35 29
M  V30 38 1 27 18
M  V30 39 1 1 36
M  V30 40 1 1 37
M  V30 41 1 1 38
M  V30 42 1 2 39
M  V30 43 1 2 40
M  V30 44 1 3 41
M  V30 45 1 3 42
M  V30 46 1 4 43
M  V30 47 1 4 44
M  V30 48 1 6 45
M  V30 49 1 6 46
M  V30 50 1 7 47
M  V30 51 1 7 48
M  V30 52 1 8 49
M  V30 53 1 8 50
M  V30 54 1 9 51
M  V30 55 1 9 52
M  V30 56 1 9 53
M  V30 57 1 10 54
M  V30 58 1 10 55
M  V30 59 1 11 56
M  V30 60 1 12 57
M  V30 61 1 14 58
M  V30 62 1 17 59
M  V30 63 1 21 60
M  V30 64 1 22 61
M  V30 65 1 25 62
M  V30 66 1 28 63
M  V30 67 1 30 64
M  V30 68 1 31 65
M  V30 69 1 34 66
M  V30 70 1 35 67
M  V30 END BOND
M  V30 END CTAB
M  END
>  <Dataset>  (546) 
OralDrugs

>  <Ligand_Instance>  (546) 
nan

>  <PDB_ID>  (546) 
nan

>  <Standardized_SMILES>  (546) 
CCCCN(CCCC)CC(O)c1cc(Cl)cc2c1-c1ccc(Cl)cc1/C2=C/c1ccc(Cl)cc1

>  <Name>  (546) 
Lumefantrine

>  <Pocket>  (546) 
nan

>  <ATP_Site>  (546) 
nan

>  <Peripheral>  (546) 
nan

>  <Num_H_Atoms_ProtBoundConf>  (546) 
nan

>  <Num_Resolved_Atoms>  (546) 
nan

>  <Num_Not_Resolved_Atoms>  (546) 
nan

$$$$
CHEMBL1237021
     RDKit          3D

  0  0  0  0  0  0  0  0  0  0999 V3000
M  V30 BEGIN CTAB
M  V30 COUNTS 71 77 0 0 0
M  V30 BEGIN ATOM
M  V30 1 O 0.227783 3.029552 1.587617 0
M  V30 2 C 1.182070 2.186379 1.435209 0
M  V30 3 C 1.945088 1.326225 2.350285 0 CFG=2
M  V30 4 C 2.527402 2.083951 3.518331 0 CFG=1
M  V30 5 C 3.144972 1.102839 4.456104 0
M  V30 6 C 4.329146 0.572447 3.648157 0
M  V30 7 C 4.300008 1.350237 2.352932 0 CFG=2
M  V30 8 C 3.764025 2.679064 2.851679 0
M  V30 9 C 3.157784 0.850288 1.535952 0 CFG=2
M  V30 10 C 2.962941 1.573318 0.255332 0
M  V30 11 O 4.075488 1.603737 -0.382256 0
M  V30 12 N 1.609199 2.043975 0.059242 0
M  V30 13 C 1.182076 2.173244 -1.301956 0
M  V30 14 C 0.685254 0.963861 -1.956434 0 CFG=2
M  V30 15 C 0.322443 1.308321 -3.450431 0
M  V30 16 C 0.299925 0.023642 -4.210174 0
M  V30 17 C -0.665177 -0.998362 -3.653663 0
M  V30 18 C -0.352895 -1.179646 -2.186701 0
M  V30 19 C -0.471014 0.196722 -1.490639 0 CFG=1
M  V30 20 C -0.721231 -0.022242 -0.054509 0
M  V30 21 N -1.904062 -0.840318 0.201291 0
M  V30 22 C -2.061824 -0.994013 1.622719 0
M  V30 23 C -3.310584 -1.716788 2.034039 0
M  V30 24 N -4.023337 -2.099997 0.831716 0
M  V30 25 C -4.336547 -3.452154 0.531974 0
M  V30 26 N -5.722510 -3.537478 0.427185 0
M  V30 27 S -5.919388 -5.355098 0.036532 0
M  V30 28 C -4.230638 -5.702492 0.070264 0
M  V30 29 C -3.542215 -6.917716 -0.138370 0
M  V30 30 C -2.165661 -6.968948 -0.061468 0
M  V30 31 C -1.580830 -5.757400 0.227223 0
M  V30 32 C -2.186727 -4.536448 0.442308 0
M  V30 33 C -3.559106 -4.569309 0.348315 0
M  V30 34 C -4.351468 -0.956011 0.026070 0
M  V30 35 C -3.050598 -0.406515 -0.512184 0
M  V30 36 H 1.421978 0.415057 2.682468 0
M  V30 37 H 1.871126 2.833606 3.946187 0
M  V30 38 H 3.493759 1.628220 5.366958 0
M  V30 39 H 2.458228 0.253690 4.715412 0
M  V30 40 H 4.189742 -0.523185 3.460270 0
M  V30 41 H 5.248062 0.695647 4.231735 0
M  V30 42 H 5.259929 1.397404 1.843316 0
M  V30 43 H 4.442407 3.143240 3.607614 0
M  V30 44 H 3.515500 3.354150 2.010350 0
M  V30 45 H 3.153242 -0.248982 1.399623 0
M  V30 46 H 2.069741 2.539486 -1.905693 0
M  V30 47 H 0.474674 3.055040 -1.407776 0
M  V30 48 H 1.543826 0.229820 -2.105670 0
M  V30 49 H 1.055893 1.984185 -3.877530 0
M  V30 50 H -0.670651 1.787880 -3.479738 0
M  V30 51 H -0.053483 0.269498 -5.248844 0
M  V30 52 H 1.288466 -0.455055 -4.260999 0
M  V30 53 H -0.471827 -1.960594 -4.156583 0
M  V30 54 H -1.700769 -0.623687 -3.765238 0
M  V30 55 H 0.719845 -1.449072 -2.108722 0
M  V30 56 H -0.910581 -1.960299 -1.682982 0
M  V30 57 H -1.409634 0.641562 -1.991978 0
M  V30 58 H -1.047869 0.981220 0.370191 0
M  V30 59 H 0.166318 -0.319393 0.473641 0
M  V30 60 H -1.207847 -1.617511 2.012821 0
M  V30 61 H -2.035714 -0.022256 2.122699 0
M  V30 62 H -3.954425 -1.082877 2.700335 0
M  V30 63 H -3.119165 -2.633491 2.631488 0
M  V30 64 H -4.102939 -7.810866 -0.359587 0
M  V30 65 H -1.581472 -7.863746 -0.209866 0
M  V30 66 H -0.479488 -5.790866 0.290391 0
M  V30 67 H -1.561520 -3.681210 0.659576 0
M  V30 68 H -5.097268 -1.176142 -0.776082 0
M  V30 69 H -4.864364 -0.220385 0.679790 0
M  V30 70 H -3.111688 0.699438 -0.458735 0
M  V30 71 H -2.914550 -0.655826 -1.590936 0
M  V30 END ATOM
M  V30 BEGIN BOND
M  V30 1 2 1 2
M  V30 2 1 2 3
M  V30 3 1 3 4
M  V30 4 1 4 5
M  V30 5 1 5 6
M  V30 6 1 6 7
M  V30 7 1 7 8
M  V30 8 1 7 9
M  V30 9 1 9 10
M  V30 10 2 10 11
M  V30 11 1 10 12
M  V30 12 1 12 13
M  V30 13 1 13 14
M  V30 14 1 14 15
M  V30 15 1 15 16
M  V30 16 1 16 17
M  V30 17 1 17 18
M  V30 18 1 18 19
M  V30 19 1 19 20
M  V30 20 1 20 21
M  V30 21 1 21 22
M  V30 22 1 22 23
M  V30 23 1 23 24
M  V30 24 1 24 25
M  V30 25 2 25 26
M  V30 26 1 26 27
M  V30 27 1 27 28
M  V30 28 2 28 29
M  V30 29 1 29 30
M  V30 30 2 30 31
M  V30 31 1 31 32
M  V30 32 2 32 33
M  V30 33 1 24 34
M  V30 34 1 34 35
M  V30 35 1 12 2
M  V30 36 1 19 14
M  V30 37 1 35 21
M  V30 38 1 9 3
M  V30 39 1 33 25
M  V30 40 1 8 4
M  V30 41 1 33 28
M  V30 42 1 3 36 CFG=1
M  V30 43 1 4 37 CFG=1
M  V30 44 1 5 38
M  V30 45 1 5 39
M  V30 46 1 6 40
M  V30 47 1 6 41
M  V30 48 1 7 42 CFG=3
M  V30 49 1 8 43
M  V30 50 1 8 44
M  V30 51 1 9 45 CFG=3
M  V30 52 1 13 46
M  V30 53 1 13 47
M  V30 54 1 14 48 CFG=3
M  V30 55 1 15 49
M  V30 56 1 15 50
M  V30 57 1 16 51
M  V30 58 1 16 52
M  V30 59 1 17 53
M  V30 60 1 17 54
M  V30 61 1 18 55
M  V30 62 1 18 56
M  V30 63 1 19 57 CFG=3
M  V30 64 1 20 58
M  V30 65 1 20 59
M  V30 66 1 22 60
M  V30 67 1 22 61
M  V30 68 1 23 62
M  V30 69 1 23 63
M  V30 70 1 29 64
M  V30 71 1 30 65
M  V30 72 1 31 66
M  V30 73 1 32 67
M  V30 74 1 34 68
M  V30 75 1 34 69
M  V30 76 1 35 70
M  V30 77 1 35 71
M  V30 END BOND
M  V30 END CTAB
M  END
>  <Dataset>  (547) 
OralDrugs

>  <Ligand_Instance>  (547) 
nan

>  <PDB_ID>  (547) 
nan

>  <Standardized_SMILES>  (547) 
O=C1[C@@H]2[C@H]3CC[C@H](C3)[C@@H]2C(=O)N1C[C@@H]1CCCC[C@H]1CN1CCN(c2nsc3ccccc23)CC1

>  <Name>  (547) 
Lurasidone

>  <Pocket>  (547) 
nan

>  <ATP_Site>  (547) 
nan

>  <Peripheral>  (547) 
nan

>  <Num_H_Atoms_ProtBoundConf>  (547) 
nan

>  <Num_Resolved_Atoms>  (547) 
nan

>  <Num_Not_Resolved_Atoms>  (547) 
nan

$$$$
CHEMBL2107831
     RDKit          3D

  0  0  0  0  0  0  0  0  0  0999 V3000
M  V30 BEGIN CTAB
M  V30 COUNTS 71 73 0 0 0
M  V30 BEGIN ATOM
M  V30 1 C 6.163639 -0.302743 3.613945 0
M  V30 2 C 4.798529 -0.439881 4.194702 0
M  V30 3 C 3.951019 -1.530645 3.683010 0
M  V30 4 C 3.572782 -1.551770 2.259792 0
M  V30 5 C 4.634702 -1.620555 1.233815 0
M  V30 6 C 4.004165 -1.656042 -0.140594 0
M  V30 7 O 3.247633 -0.579168 -0.488547 0
M  V30 8 C 3.880366 0.633503 -0.549455 0 CFG=1
M  V30 9 C 3.886125 1.071997 -2.010189 0
M  V30 10 C 3.205959 1.608833 0.308410 0
M  V30 11 C 3.970897 2.602506 0.877773 0
M  V30 12 C 3.365537 3.532582 1.685771 0
M  V30 13 C 2.023757 3.473894 1.922160 0
M  V30 14 C 1.215567 2.503143 1.378889 0
M  V30 15 C -0.213181 2.425368 1.621349 0
M  V30 16 C -0.878724 3.410781 2.470174 0
M  V30 17 S -2.671556 2.807442 2.409212 0
M  V30 18 C -2.196730 1.430475 1.318054 0
M  V30 19 N -3.151232 0.440552 0.804931 0
M  V30 20 C -3.885126 0.518631 -0.384760 0
M  V30 21 O -3.713913 1.542950 -1.094808 0
M  V30 22 C -4.797019 -0.561626 -0.748129 0
M  V30 23 C -4.985063 -1.685009 0.030756 0
M  V30 24 C -5.865775 -2.656445 -0.389475 0
M  V30 25 Cl -6.110093 -4.034382 0.638586 0
M  V30 26 C -6.594264 -2.599771 -1.555679 0
M  V30 27 C -7.511832 -3.566966 -2.121759 0
M  V30 28 C -7.355155 -4.857831 -2.341830 0
M  V30 29 C -6.148759 -5.681105 -2.057676 0
M  V30 30 C -8.515357 -5.556046 -2.937722 0
M  V30 31 O -9.578464 -4.978074 -3.219707 0
M  V30 32 O -8.474459 -6.913807 -3.216467 0
M  V30 33 C -6.362851 -1.436830 -2.304553 0
M  V30 34 Cl -7.214159 -1.199775 -3.826270 0
M  V30 35 C -5.493319 -0.430382 -1.933232 0
M  V30 36 N -1.036214 1.522619 1.142422 0
M  V30 37 C 1.846430 1.590295 0.578101 0
M  V30 38 O 1.131825 0.581552 -0.012747 0
M  V30 39 C 0.566907 0.765775 -1.281916 0
M  V30 40 H 6.200509 0.575337 2.947108 0
M  V30 41 H 6.557353 -1.240282 3.192690 0
M  V30 42 H 6.931787 -0.040881 4.415751 0
M  V30 43 H 4.956206 -0.649958 5.296826 0
M  V30 44 H 4.248533 0.544915 4.220950 0
M  V30 45 H 3.011877 -1.549037 4.306900 0
M  V30 46 H 4.444118 -2.502825 3.947112 0
M  V30 47 H 2.876111 -2.427504 2.062212 0
M  V30 48 H 2.913372 -0.662164 2.025442 0
M  V30 49 H 5.360257 -0.789353 1.219534 0
M  V30 50 H 5.146373 -2.613444 1.335538 0
M  V30 51 H 4.794227 -1.759959 -0.940309 0
M  V30 52 H 3.379175 -2.581777 -0.263923 0
M  V30 53 H 4.937000 0.508430 -0.263086 0
M  V30 54 H 4.919089 1.252119 -2.366927 0
M  V30 55 H 3.351317 2.061280 -2.051286 0
M  V30 56 H 3.427671 0.315169 -2.672697 0
M  V30 57 H 5.039885 2.648855 0.689351 0
M  V30 58 H 3.992537 4.301182 2.118613 0
M  V30 59 H 1.636290 4.231124 2.558177 0
M  V30 60 H -0.315242 4.325503 3.011914 0
M  V30 61 H -3.178238 -0.322966 1.486698 0
M  V30 62 H -4.453336 -1.807555 0.956493 0
M  V30 63 H -8.467219 -3.087775 -2.385473 0
M  V30 64 H -5.225339 -5.116722 -1.933531 0
M  V30 65 H -5.945968 -6.351347 -2.945615 0
M  V30 66 H -6.289318 -6.357019 -1.200563 0
M  V30 67 H -9.222802 -7.476891 -3.551059 0
M  V30 68 H -5.351317 0.440414 -2.541555 0
M  V30 69 H -0.487966 0.379277 -1.342365 0
M  V30 70 H 1.115817 0.163143 -2.060858 0
M  V30 71 H 0.621922 1.837234 -1.558801 0
M  V30 END ATOM
M  V30 BEGIN BOND
M  V30 1 1 1 2
M  V30 2 1 2 3
M  V30 3 1 3 4
M  V30 4 1 4 5
M  V30 5 1 5 6
M  V30 6 1 6 7
M  V30 7 1 7 8
M  V30 8 1 8 9
M  V30 9 1 8 10
M  V30 10 2 10 11
M  V30 11 1 11 12
M  V30 12 2 12 13
M  V30 13 1 13 14
M  V30 14 1 14 15
M  V30 15 2 15 16
M  V30 16 1 16 17
M  V30 17 1 17 18
M  V30 18 1 18 19
M  V30 19 1 19 20
M  V30 20 2 20 21
M  V30 21 1 20 22
M  V30 22 2 22 23
M  V30 23 1 23 24
M  V30 24 1 24 25
M  V30 25 2 24 26
M  V30 26 1 26 27
M  V30 27 2 27 28
M  V30 28 1 28 29
M  V30 29 1 28 30
M  V30 30 2 30 31
M  V30 31 1 30 32
M  V30 32 1 26 33
M  V30 33 1 33 34
M  V30 34 2 33 35
M  V30 35 2 18 36
M  V30 36 2 14 37
M  V30 37 1 37 38
M  V30 38 1 38 39
M  V30 39 1 37 10
M  V30 40 1 36 15
M  V30 41 1 35 22
M  V30 42 1 1 40
M  V30 43 1 1 41
M  V30 44 1 1 42
M  V30 45 1 2 43
M  V30 46 1 2 44
M  V30 47 1 3 45
M  V30 48 1 3 46
M  V30 49 1 4 47
M  V30 50 1 4 48
M  V30 51 1 5 49
M  V30 52 1 5 50
M  V30 53 1 6 51
M  V30 54 1 6 52
M  V30 55 1 8 53 CFG=1
M  V30 56 1 9 54
M  V30 57 1 9 55
M  V30 58 1 9 56
M  V30 59 1 11 57
M  V30 60 1 12 58
M  V30 61 1 13 59
M  V30 62 1 16 60
M  V30 63 1 19 61
M  V30 64 1 23 62
M  V30 65 1 27 63
M  V30 66 1 29 64
M  V30 67 1 29 65
M  V30 68 1 29 66
M  V30 69 1 32 67
M  V30 70 1 35 68
M  V30 71 1 39 69
M  V30 72 1 39 70
M  V30 73 1 39 71
M  V30 END BOND
M  V30 END CTAB
M  END
>  <Dataset>  (548) 
OralDrugs

>  <Ligand_Instance>  (548) 
nan

>  <PDB_ID>  (548) 
nan

>  <Standardized_SMILES>  (548) 
CCCCCCO[C@@H](C)c1cccc(-c2csc(NC(=O)c3cc(Cl)c(/C=C(\C)C(=O)O)c(Cl)c3)n2)c1OC

>  <Name>  (548) 
Lusutrombopag

>  <Pocket>  (548) 
nan

>  <ATP_Site>  (548) 
nan

>  <Peripheral>  (548) 
nan

>  <Num_H_Atoms_ProtBoundConf>  (548) 
nan

>  <Num_Resolved_Atoms>  (548) 
nan

>  <Num_Not_Resolved_Atoms>  (548) 
nan

$$$$
CHEMBL278623
     RDKit          3D

  0  0  0  0  0  0  0  0  0  0999 V3000
M  V30 BEGIN CTAB
M  V30 COUNTS 65 68 0 0 0
M  V30 BEGIN ATOM
M  V30 1 C 3.514898 -3.994749 1.087771 0
M  V30 2 C 3.858986 -2.539467 0.826525 0
M  V30 3 C 5.146077 -2.521253 0.043200 0
M  V30 4 N 4.066077 -1.930059 2.130155 0
M  V30 5 C 2.740161 -1.919225 0.074825 0
M  V30 6 O 2.715488 -2.555340 -1.034245 0
M  V30 7 N 1.869057 -0.863132 0.454059 0
M  V30 8 C 0.828396 -0.400349 -0.437490 0 CFG=2
M  V30 9 C 0.987331 1.007800 -0.894017 0
M  V30 10 C 2.220490 1.300724 -1.635203 0
M  V30 11 C 2.229201 1.403682 -3.029163 0
M  V30 12 N 3.502089 1.665681 -3.448426 0
M  V30 13 C 4.319524 1.736442 -2.371710 0
M  V30 14 C 5.662357 1.967687 -2.153556 0
M  V30 15 C 6.227572 1.982584 -0.896567 0
M  V30 16 C 5.421898 1.756903 0.203689 0
M  V30 17 C 4.082871 1.526850 -0.024394 0
M  V30 18 C 3.532902 1.514693 -1.284823 0
M  V30 19 C -0.469349 -0.576932 0.250166 0
M  V30 20 O 0.227344 -1.030432 1.191103 0
M  V30 21 N -1.768847 -0.266731 -0.225923 0
M  V30 22 C -2.853798 -0.559503 0.688463 0 CFG=2
M  V30 23 C -3.854867 -1.522095 0.129577 0
M  V30 24 C -4.971257 -1.839660 1.053597 0
M  V30 25 C -4.956194 -3.045451 1.767367 0
M  V30 26 N -6.037831 -3.147761 2.558134 0
M  V30 27 C -6.782684 -2.037008 2.393450 0
M  V30 28 C -7.985460 -1.543384 2.906402 0
M  V30 29 C -8.455557 -0.312990 2.481842 0
M  V30 30 C -7.777132 0.471347 1.552359 0
M  V30 31 C -6.588988 -0.009032 1.041444 0
M  V30 32 C -6.134199 -1.234644 1.474048 0
M  V30 33 N -3.407523 0.720347 1.074456 0
M  V30 34 C -3.423501 1.154777 2.434117 0
M  V30 35 O -2.928136 0.367233 3.301887 0
M  V30 36 H 4.252941 -4.489244 1.724769 0
M  V30 37 H 3.456515 -4.535051 0.124051 0
M  V30 38 H 2.507676 -3.978146 1.565642 0
M  V30 39 H 5.196101 -3.425366 -0.601873 0
M  V30 40 H 5.239230 -1.620295 -0.579015 0
M  V30 41 H 6.000497 -2.543525 0.720260 0
M  V30 42 H 3.159449 -1.733044 2.596132 0
M  V30 43 H 4.724214 -1.142741 2.129860 0
M  V30 44 H 2.068368 -0.490065 1.405953 0
M  V30 45 H 0.883855 -1.043649 -1.366673 0
M  V30 46 H 1.019686 1.643126 0.041389 0
M  V30 47 H 0.070743 1.277207 -1.456928 0
M  V30 48 H 1.460840 1.320087 -3.802694 0
M  V30 49 H 3.901457 1.807266 -4.401888 0
M  V30 50 H 6.309109 2.147477 -3.015197 0
M  V30 51 H 7.303317 2.171843 -0.775619 0
M  V30 52 H 5.882131 1.771503 1.197709 0
M  V30 53 H 3.480186 1.359018 0.855343 0
M  V30 54 H -1.792518 0.134502 -1.182632 0
M  V30 55 H -2.477306 -1.011237 1.634910 0
M  V30 56 H -3.401467 -2.421823 -0.290995 0
M  V30 57 H -4.322454 -0.990968 -0.754057 0
M  V30 58 H -4.200670 -3.845361 1.737511 0
M  V30 59 H -6.291382 -3.931358 3.200449 0
M  V30 60 H -8.502802 -2.162082 3.629420 0
M  V30 61 H -9.404466 -0.038716 2.956393 0
M  V30 62 H -8.249133 1.401870 1.309738 0
M  V30 63 H -6.073827 0.600879 0.319719 0
M  V30 64 H -3.792738 1.310654 0.303755 0
M  V30 65 H -3.846013 2.121882 2.696241 0
M  V30 END ATOM
M  V30 BEGIN BOND
M  V30 1 1 1 2
M  V30 2 1 2 3
M  V30 3 1 2 4
M  V30 4 1 2 5
M  V30 5 2 5 6
M  V30 6 1 5 7
M  V30 7 1 7 8
M  V30 8 1 8 9
M  V30 9 1 9 10
M  V30 10 2 10 11
M  V30 11 1 11 12
M  V30 12 1 12 13
M  V30 13 2 13 14
M  V30 14 1 14 15
M  V30 15 2 15 16
M  V30 16 1 16 17
M  V30 17 2 17 18
M  V30 18 1 8 19
M  V30 19 2 19 20
M  V30 20 1 19 21
M  V30 21 1 21 22
M  V30 22 1 22 23
M  V30 23 1 23 24
M  V30 24 2 24 25
M  V30 25 1 25 26
M  V30 26 1 26 27
M  V30 27 2 27 28
M  V30 28 1 28 29
M  V30 29 2 29 30
M  V30 30 1 30 31
M  V30 31 2 31 32
M  V30 32 1 22 33
M  V30 33 1 33 34
M  V30 34 2 34 35
M  V30 35 1 18 10
M  V30 36 1 32 24
M  V30 37 1 18 13
M  V30 38 1 32 27
M  V30 39 1 1 36
M  V30 40 1 1 37
M  V30 41 1 1 38
M  V30 42 1 3 39
M  V30 43 1 3 40
M  V30 44 1 3 41
M  V30 45 1 4 42
M  V30 46 1 4 43
M  V30 47 1 7 44
M  V30 48 1 8 45 CFG=3
M  V30 49 1 9 46
M  V30 50 1 9 47
M  V30 51 1 11 48
M  V30 52 1 12 49
M  V30 53 1 14 50
M  V30 54 1 15 51
M  V30 55 1 16 52
M  V30 56 1 17 53
M  V30 57 1 21 54
M  V30 58 1 22 55 CFG=1
M  V30 59 1 23 56
M  V30 60 1 23 57
M  V30 61 1 25 58
M  V30 62 1 26 59
M  V30 63 1 28 60
M  V30 64 1 29 61
M  V30 65 1 30 62
M  V30 66 1 31 63
M  V30 67 1 33 64
M  V30 68 1 34 65
M  V30 END BOND
M  V30 END CTAB
M  END
>  <Dataset>  (549) 
OralDrugs

>  <Ligand_Instance>  (549) 
nan

>  <PDB_ID>  (549) 
nan

>  <Standardized_SMILES>  (549) 
CC(C)(N)C(=O)N[C@H](Cc1c[nH]c2ccccc12)C(=O)N[C@H](Cc1c[nH]c2ccccc12)NC=O

>  <Name>  (549) 
Macimorelin

>  <Pocket>  (549) 
nan

>  <ATP_Site>  (549) 
nan

>  <Peripheral>  (549) 
nan

>  <Num_H_Atoms_ProtBoundConf>  (549) 
nan

>  <Num_Resolved_Atoms>  (549) 
nan

>  <Num_Not_Resolved_Atoms>  (549) 
nan

$$$$
CHEMBL2103873
     RDKit          3D

  0  0  0  0  0  0  0  0  0  0999 V3000
M  V30 BEGIN CTAB
M  V30 COUNTS 52 54 0 0 0
M  V30 BEGIN ATOM
M  V30 1 C 5.123168 0.613547 5.681121 0
M  V30 2 C 4.862696 -0.592980 4.813850 0
M  V30 3 C 4.823438 -0.114514 3.378571 0
M  V30 4 N 4.598283 -1.203634 2.467837 0
M  V30 5 S 4.555046 -0.747074 0.818740 0
M  V30 6 O 5.446115 -1.653480 -0.023043 0
M  V30 7 O 5.146104 0.666287 0.717884 0
M  V30 8 N 2.947280 -0.703105 0.260358 0
M  V30 9 C 1.820674 0.032381 0.616030 0
M  V30 10 N 1.908440 0.911459 1.609695 0
M  V30 11 C 0.918739 1.691259 2.064616 0
M  V30 12 N -0.278268 1.550594 1.436741 0
M  V30 13 C -0.382421 0.670869 0.435527 0
M  V30 14 O -1.661291 0.580996 -0.179147 0
M  V30 15 C -2.720247 1.360128 0.260523 0
M  V30 16 C -4.008480 1.209903 -0.513900 0
M  V30 17 O -4.620100 0.052209 -0.615091 0
M  V30 18 C -5.208455 -1.062044 -0.712615 0
M  V30 19 N -6.396469 -0.738886 -0.120881 0
M  V30 20 C -7.398421 -1.674347 0.001883 0
M  V30 21 C -7.236565 -2.955646 -0.465152 0
M  V30 22 Br -8.523052 -4.352578 -0.384291 0
M  V30 23 C -6.001424 -3.241675 -1.065757 0
M  V30 24 N -5.080545 -2.283528 -1.146571 0
M  V30 25 C 0.597564 -0.151189 -0.072538 0
M  V30 26 C 0.392877 -1.056638 -1.136049 0
M  V30 27 C -0.054415 -2.349244 -1.067218 0
M  V30 28 C -0.294533 -3.319378 -1.989941 0
M  V30 29 C -0.009838 -2.846941 -3.270885 0
M  V30 30 Br -0.296206 -4.087111 -4.721984 0
M  V30 31 C 0.457164 -1.553662 -3.542490 0
M  V30 32 C 0.645374 -0.696568 -2.480358 0
M  V30 33 H 4.176300 1.057756 6.070880 0
M  V30 34 H 5.737532 1.322770 5.096490 0
M  V30 35 H 5.780265 0.272861 6.511669 0
M  V30 36 H 5.637604 -1.372971 4.954092 0
M  V30 37 H 3.889691 -1.050670 5.054284 0
M  V30 38 H 4.028731 0.648188 3.323636 0
M  V30 39 H 5.764367 0.438542 3.111774 0
M  V30 40 H 3.693264 -1.637966 2.710722 0
M  V30 41 H 2.801294 -1.409591 -0.517596 0
M  V30 42 H 1.163498 2.350785 2.881494 0
M  V30 43 H -2.957825 1.213323 1.339329 0
M  V30 44 H -2.411237 2.419295 0.163291 0
M  V30 45 H -4.751451 1.998558 -0.072860 0
M  V30 46 H -3.862328 1.667903 -1.552628 0
M  V30 47 H -8.402682 -1.603984 0.426923 0
M  V30 48 H -5.737999 -4.222432 -1.480914 0
M  V30 49 H -0.257222 -2.646242 -0.024100 0
M  V30 50 H -0.645582 -4.305140 -1.799278 0
M  V30 51 H 0.636712 -1.297226 -4.563530 0
M  V30 52 H 1.009179 0.304286 -2.705457 0
M  V30 END ATOM
M  V30 BEGIN BOND
M  V30 1 1 1 2
M  V30 2 1 2 3
M  V30 3 1 3 4
M  V30 4 1 4 5
M  V30 5 2 5 6
M  V30 6 2 5 7
M  V30 7 1 5 8
M  V30 8 1 8 9
M  V30 9 2 9 10
M  V30 10 1 10 11
M  V30 11 2 11 12
M  V30 12 1 12 13
M  V30 13 1 13 14
M  V30 14 1 14 15
M  V30 15 1 15 16
M  V30 16 1 16 17
M  V30 17 1 17 18
M  V30 18 2 18 19
M  V30 19 1 19 20
M  V30 20 2 20 21
M  V30 21 1 21 22
M  V30 22 1 21 23
M  V30 23 2 23 24
M  V30 24 2 13 25
M  V30 25 1 25 26
M  V30 26 2 26 27
M  V30 27 1 27 28
M  V30 28 2 28 29
M  V30 29 1 29 30
M  V30 30 1 29 31
M  V30 31 2 31 32
M  V30 32 1 25 9
M  V30 33 1 32 26
M  V30 34 1 24 18
M  V30 35 1 1 33
M  V30 36 1 1 34
M  V30 37 1 1 35
M  V30 38 1 2 36
M  V30 39 1 2 37
M  V30 40 1 3 38
M  V30 41 1 3 39
M  V30 42 1 4 40
M  V30 43 1 8 41
M  V30 44 1 11 42
M  V30 45 1 15 43
M  V30 46 1 15 44
M  V30 47 1 16 45
M  V30 48 1 16 46
M  V30 49 1 20 47
M  V30 50 1 23 48
M  V30 51 1 27 49
M  V30 52 1 28 50
M  V30 53 1 31 51
M  V30 54 1 32 52
M  V30 END BOND
M  V30 END CTAB
M  END
>  <Dataset>  (550) 
OralDrugs

>  <Ligand_Instance>  (550) 
nan

>  <PDB_ID>  (550) 
nan

>  <Standardized_SMILES>  (550) 
CCCNS(=O)(=O)Nc1ncnc(OCCOc2ncc(Br)cn2)c1-c1ccc(Br)cc1

>  <Name>  (550) 
Macitentan

>  <Pocket>  (550) 
nan

>  <ATP_Site>  (550) 
nan

>  <Peripheral>  (550) 
nan

>  <Num_H_Atoms_ProtBoundConf>  (550) 
nan

>  <Num_Resolved_Atoms>  (550) 
nan

>  <Num_Not_Resolved_Atoms>  (550) 
nan

$$$$
CHEMBL21731
     RDKit          3D

  0  0  0  0  0  0  0  0  0  0999 V3000
M  V30 BEGIN CTAB
M  V30 COUNTS 44 47 0 0 0
M  V30 BEGIN ATOM
M  V30 1 C -2.634260 -1.669209 3.456999 0
M  V30 2 N -3.087897 -2.097042 2.176700 0
M  V30 3 C -2.133080 -1.802738 1.088081 0
M  V30 4 C -2.100586 -0.332502 0.931068 0
M  V30 5 C -1.284901 0.363627 -0.067548 0
M  V30 6 C 0.157135 0.250294 -0.110784 0
M  V30 7 C 0.748749 1.170803 -1.252750 0
M  V30 8 C 2.225391 1.171839 -1.179768 0
M  V30 9 C 2.803647 0.196953 -0.111337 0
M  V30 10 C 2.209417 0.712237 1.140669 0
M  V30 11 C 3.073731 1.106033 2.099167 0
M  V30 12 C 2.513843 1.692204 3.215651 0
M  V30 13 C 1.155452 1.843726 3.296989 0
M  V30 14 C 0.386042 1.398938 2.250839 0
M  V30 15 C 0.831423 0.788209 1.073503 0
M  V30 16 C 2.137062 -1.079522 -0.451771 0
M  V30 17 C 2.988625 -2.084224 -0.746725 0
M  V30 18 C 2.427171 -3.255763 -1.201867 0
M  V30 19 C 1.063523 -3.364568 -1.339520 0
M  V30 20 C 0.319154 -2.269168 -1.003362 0
M  V30 21 C 0.747842 -1.047073 -0.534950 0
M  V30 22 H -3.137441 -2.344922 4.210900 0
M  V30 23 H -2.978721 -0.637401 3.751346 0
M  V30 24 H -1.547035 -1.820449 3.624634 0
M  V30 25 H -3.251051 -3.122685 2.191879 0
M  V30 26 H -2.611240 -2.259351 0.199662 0
M  V30 27 H -1.187395 -2.311049 1.289974 0
M  V30 28 H -1.983039 0.054660 2.000733 0
M  V30 29 H -3.238934 -0.088582 0.711662 0
M  V30 30 H -1.776351 0.143572 -1.073559 0
M  V30 31 H -1.499266 1.495256 -0.006759 0
M  V30 32 H 0.327883 2.167228 -1.004466 0
M  V30 33 H 0.335545 0.811188 -2.212007 0
M  V30 34 H 2.644455 2.165334 -0.847080 0
M  V30 35 H 2.723870 0.973811 -2.144558 0
M  V30 36 H 3.876783 0.215993 -0.149882 0
M  V30 37 H 4.130257 0.975717 2.009643 0
M  V30 38 H 3.141385 2.029333 4.020830 0
M  V30 39 H 0.699727 2.300457 4.158927 0
M  V30 40 H -0.660104 1.598657 2.373208 0
M  V30 41 H 4.048477 -2.038342 -0.651698 0
M  V30 42 H 3.012154 -4.119984 -1.463223 0
M  V30 43 H 0.525967 -4.231878 -1.687115 0
M  V30 44 H -0.745520 -2.320437 -1.154749 0
M  V30 END ATOM
M  V30 BEGIN BOND
M  V30 1 1 1 2
M  V30 2 1 2 3
M  V30 3 1 3 4
M  V30 4 1 4 5
M  V30 5 1 5 6
M  V30 6 1 6 7
M  V30 7 1 7 8
M  V30 8 1 8 9
M  V30 9 1 9 10
M  V30 10 2 10 11
M  V30 11 1 11 12
M  V30 12 2 12 13
M  V30 13 1 13 14
M  V30 14 2 14 15
M  V30 15 1 9 16
M  V30 16 2 16 17
M  V30 17 1 17 18
M  V30 18 2 18 19
M  V30 19 1 19 20
M  V30 20 2 20 21
M  V30 21 1 15 6
M  V30 22 1 21 16
M  V30 23 1 21 6
M  V30 24 1 15 10
M  V30 25 1 1 22
M  V30 26 1 1 23
M  V30 27 1 1 24
M  V30 28 1 2 25
M  V30 29 1 3 26
M  V30 30 1 3 27
M  V30 31 1 4 28
M  V30 32 1 4 29
M  V30 33 1 5 30
M  V30 34 1 5 31
M  V30 35 1 7 32
M  V30 36 1 7 33
M  V30 37 1 8 34
M  V30 38 1 8 35
M  V30 39 1 9 36
M  V30 40 1 11 37
M  V30 41 1 12 38
M  V30 42 1 13 39
M  V30 43 1 14 40
M  V30 44 1 17 41
M  V30 45 1 18 42
M  V30 46 1 19 43
M  V30 47 1 20 44
M  V30 END BOND
M  V30 END CTAB
M  END
>  <Dataset>  (551) 
OralDrugs

>  <Ligand_Instance>  (551) 
nan

>  <PDB_ID>  (551) 
nan

>  <Standardized_SMILES>  (551) 
CNCCCC12CCC(c3ccccc31)c1ccccc12

>  <Name>  (551) 
Maprotiline

>  <Pocket>  (551) 
nan

>  <ATP_Site>  (551) 
nan

>  <Peripheral>  (551) 
nan

>  <Num_H_Atoms_ProtBoundConf>  (551) 
nan

>  <Num_Resolved_Atoms>  (551) 
nan

>  <Num_Not_Resolved_Atoms>  (551) 
nan

$$$$
CHEMBL363392
     RDKit          3D

  0  0  0  0  0  0  0  0  0  0999 V3000
M  V30 BEGIN CTAB
M  V30 COUNTS 104 109 0 0 0
M  V30 BEGIN ATOM
M  V30 1 C -2.478889 -6.759211 5.687519 0
M  V30 2 C -3.186329 -5.964424 4.630489 0
M  V30 3 C -2.464430 -4.606438 4.363595 0
M  V30 4 C -1.119454 -4.958993 3.925362 0
M  V30 5 C -0.128541 -3.916170 3.510265 0
M  V30 6 C 0.284657 -2.886888 4.459515 0
M  V30 7 C -0.632670 -1.908810 5.046449 0
M  V30 8 C 0.176356 -0.962821 5.979950 0
M  V30 9 C 0.838418 -1.736034 7.081317 0
M  V30 10 C 1.088136 -4.800979 3.246378 0
M  V30 11 S 2.471091 -4.069698 2.542902 0
M  V30 12 O 3.431826 -5.203103 2.200459 0
M  V30 13 O 3.248996 -3.124388 3.367792 0
M  V30 14 C 1.995286 -3.379965 0.979668 0
M  V30 15 C 2.865266 -3.707273 -0.037463 0
M  V30 16 C 2.673367 -3.269153 -1.334279 0
M  V30 17 C 1.587712 -2.479821 -1.648972 0
M  V30 18 N 1.321515 -1.991678 -2.957553 0
M  V30 19 C 0.158554 -1.154583 -3.257118 0
M  V30 20 C 2.207330 -2.312057 -4.058740 0
M  V30 21 C 0.698577 -2.135471 -0.650042 0
M  V30 22 C 0.915596 -2.587717 0.637104 0
M  V30 23 C -0.114048 -2.156467 1.654580 0 CFG=1
M  V30 24 C -1.040518 -1.170326 1.069633 0
M  V30 25 C -2.230289 -1.574362 0.495620 0
M  V30 26 C -3.098847 -0.616209 -0.052696 0
M  V30 27 C -2.789418 0.755344 -0.034079 0
M  V30 28 O -3.820536 1.409366 -0.634543 0
M  V30 29 C -4.068155 2.730228 -0.901889 0
M  V30 30 C -3.099502 3.431645 -1.780126 0
M  V30 31 C -3.320745 3.307803 -3.139538 0
M  V30 32 C -2.558381 3.882862 -4.132239 0
M  V30 33 C -1.476400 4.652673 -3.769042 0
M  V30 34 C -0.552622 5.340126 -4.685554 0
M  V30 35 N 0.595948 4.594920 -5.082488 0 CHG=1 VAL=4
M  V30 36 C 0.242869 3.505369 -5.943588 0
M  V30 37 C 1.445648 2.662224 -6.313662 0
M  V30 38 N 2.633112 3.412241 -5.961824 0
M  V30 39 C 2.647775 3.496844 -4.514632 0
M  V30 40 C 1.429481 4.187702 -3.971947 0
M  V30 41 C 2.557711 4.753845 -6.522452 0
M  V30 42 C 1.427998 5.515476 -5.874705 0
M  V30 43 C -1.231608 4.794163 -2.425221 0
M  V30 44 C -2.009437 4.208603 -1.449018 0
M  V30 45 C -1.593557 1.113177 0.547983 0
M  V30 46 C -0.738401 0.178914 1.086760 0
M  V30 47 C -0.701157 -3.371267 2.209650 0 CFG=1
M  V30 48 O -0.593124 -4.442423 1.301669 0
M  V30 49 H -1.711812 -7.449851 5.315538 0
M  V30 50 H -1.934760 -6.019122 6.337730 0
M  V30 51 H -3.199894 -7.278229 6.375695 0
M  V30 52 H -4.212281 -5.780764 4.952668 0
M  V30 53 H -3.210737 -6.565944 3.706071 0
M  V30 54 H -2.413587 -4.202523 5.419827 0
M  V30 55 H -3.126060 -4.063182 3.701897 0
M  V30 56 H -1.128178 -5.699328 3.052078 0
M  V30 57 H -0.682897 -5.623929 4.748081 0
M  V30 58 H 1.196138 -2.334321 4.119851 0
M  V30 59 H 0.720713 -3.467519 5.360920 0
M  V30 60 H -1.108663 -1.205648 4.336610 0
M  V30 61 H -1.435328 -2.249602 5.712699 0
M  V30 62 H 0.985099 -0.503080 5.361847 0
M  V30 63 H -0.485535 -0.217881 6.422889 0
M  V30 64 H 0.870431 -1.120646 7.980723 0
M  V30 65 H 0.273150 -2.691845 7.288061 0
M  V30 66 H 1.855924 -2.091465 6.771131 0
M  V30 67 H 1.339813 -5.284568 4.192821 0
M  V30 68 H 0.743145 -5.607954 2.545170 0
M  V30 69 H 3.736147 -4.336558 0.198403 0
M  V30 70 H 3.373841 -3.543628 -2.106413 0
M  V30 71 H -0.759321 -1.620830 -2.791924 0
M  V30 72 H 0.214299 -0.154278 -2.815112 0
M  V30 73 H -0.059870 -1.172203 -4.342112 0
M  V30 74 H 3.080470 -1.638247 -4.110718 0
M  V30 75 H 1.688448 -2.267238 -5.038248 0
M  V30 76 H 2.583101 -3.369531 -3.975296 0
M  V30 77 H -0.170075 -1.518860 -0.836242 0
M  V30 78 H 0.430302 -1.607544 2.446168 0
M  V30 79 H -2.415024 -2.639600 0.509727 0
M  V30 80 H -3.987210 -1.127574 -0.459620 0
M  V30 81 H -4.256374 3.341609 0.035119 0
M  V30 82 H -5.082793 2.773880 -1.408435 0
M  V30 83 H -4.160956 2.712745 -3.528058 0
M  V30 84 H -2.758701 3.767890 -5.179415 0
M  V30 85 H -0.188974 6.309933 -4.251813 0
M  V30 86 H -1.063138 5.656378 -5.638920 0
M  V30 87 H -0.179382 3.912836 -6.882727 0
M  V30 88 H -0.551619 2.898968 -5.463076 0
M  V30 89 H 1.426254 2.363400 -7.373879 0
M  V30 90 H 1.480160 1.718671 -5.719674 0
M  V30 91 H 3.601661 4.008413 -4.242536 0
M  V30 92 H 2.758404 2.451798 -4.133097 0
M  V30 93 H 0.891972 3.561498 -3.244435 0
M  V30 94 H 1.780177 5.150270 -3.502017 0
M  V30 95 H 3.525560 5.250205 -6.368918 0
M  V30 96 H 2.405355 4.626830 -7.614282 0
M  V30 97 H 0.763559 5.874280 -6.698234 0
M  V30 98 H 1.799585 6.341114 -5.235882 0
M  V30 99 H -0.399148 5.382891 -2.014147 0
M  V30 100 H -1.841401 4.311794 -0.386948 0
M  V30 101 H -1.459962 2.168511 0.511856 0
M  V30 102 H 0.172856 0.571246 1.517103 0
M  V30 103 H -1.790616 -3.241530 2.370142 0
M  V30 104 H -0.576405 -4.175790 0.369683 0
M  V30 END ATOM
M  V30 BEGIN BOND
M  V30 1 1 1 2
M  V30 2 1 2 3
M  V30 3 1 3 4
M  V30 4 1 4 5
M  V30 5 1 5 6
M  V30 6 1 6 7
M  V30 7 1 7 8
M  V30 8 1 8 9
M  V30 9 1 5 10
M  V30 10 1 10 11
M  V30 11 2 11 12
M  V30 12 2 11 13
M  V30 13 1 11 14
M  V30 14 2 14 15
M  V30 15 1 15 16
M  V30 16 2 16 17
M  V30 17 1 17 18
M  V30 18 1 18 19
M  V30 19 1 18 20
M  V30 20 1 17 21
M  V30 21 2 21 22
M  V30 22 1 22 23
M  V30 23 1 23 24
M  V30 24 2 24 25
M  V30 25 1 25 26
M  V30 26 2 26 27
M  V30 27 1 27 28
M  V30 28 1 28 29
M  V30 29 1 29 30
M  V30 30 2 30 31
M  V30 31 1 31 32
M  V30 32 2 32 33
M  V30 33 1 33 34
M  V30 34 1 34 35
M  V30 35 1 35 36
M  V30 36 1 36 37
M  V30 37 1 37 38
M  V30 38 1 38 39
M  V30 39 1 39 40
M  V30 40 1 38 41
M  V30 41 1 41 42
M  V30 42 1 33 43
M  V30 43 2 43 44
M  V30 44 1 27 45
M  V30 45 2 45 46
M  V30 46 1 23 47
M  V30 47 1 47 48
M  V30 48 1 47 5
M  V30 49 1 22 14
M  V30 50 1 46 24
M  V30 51 1 44 30
M  V30 52 1 40 35
M  V30 53 1 42 35
M  V30 54 1 1 49
M  V30 55 1 1 50
M  V30 56 1 1 51
M  V30 57 1 2 52
M  V30 58 1 2 53
M  V30 59 1 3 54
M  V30 60 1 3 55
M  V30 61 1 4 56
M  V30 62 1 4 57
M  V30 63 1 6 58
M  V30 64 1 6 59
M  V30 65 1 7 60
M  V30 66 1 7 61
M  V30 67 1 8 62
M  V30 68 1 8 63
M  V30 69 1 9 64
M  V30 70 1 9 65
M  V30 71 1 9 66
M  V30 72 1 10 67
M  V30 73 1 10 68
M  V30 74 1 15 69
M  V30 75 1 16 70
M  V30 76 1 19 71
M  V30 77 1 19 72
M  V30 78 1 19 73
M  V30 79 1 20 74
M  V30 80 1 20 75
M  V30 81 1 20 76
M  V30 82 1 21 77
M  V30 83 1 23 78 CFG=1
M  V30 84 1 25 79
M  V30 85 1 26 80
M  V30 86 1 29 81
M  V30 87 1 29 82
M  V30 88 1 31 83
M  V30 89 1 32 84
M  V30 90 1 34 85
M  V30 91 1 34 86
M  V30 92 1 36 87
M  V30 93 1 36 88
M  V30 94 1 37 89
M  V30 95 1 37 90
M  V30 96 1 39 91
M  V30 97 1 39 92
M  V30 98 1 40 93
M  V30 99 1 40 94
M  V30 100 1 41 95
M  V30 101 1 41 96
M  V30 102 1 42 97
M  V30 103 1 42 98
M  V30 104 1 43 99
M  V30 105 1 44 100
M  V30 106 1 45 101
M  V30 107 1 46 102
M  V30 108 1 47 103 CFG=1
M  V30 109 1 48 104
M  V30 END BOND
M  V30 END CTAB
M  END
>  <Dataset>  (552) 
OralDrugs

>  <Ligand_Instance>  (552) 
nan

>  <PDB_ID>  (552) 
nan

>  <Standardized_SMILES>  (552) 
CCCCC1(CCCC)CS(=O)(=O)c2ccc(N(C)C)cc2[C@@H](c2ccc(OCc3ccc(C[N+]45CCN(CC4)CC5)cc3)cc2)[C@H]1O

>  <Name>  (552) 
Maralixibat

>  <Pocket>  (552) 
nan

>  <ATP_Site>  (552) 
nan

>  <Peripheral>  (552) 
nan

>  <Num_H_Atoms_ProtBoundConf>  (552) 
nan

>  <Num_Resolved_Atoms>  (552) 
nan

>  <Num_Not_Resolved_Atoms>  (552) 
nan

$$$$
CHEMBL1201187
     RDKit          3D

  0  0  0  0  0  0  0  0  0  0999 V3000
M  V30 BEGIN CTAB
M  V30 COUNTS 78 82 0 0 0
M  V30 BEGIN ATOM
M  V30 1 C 3.242940 2.938119 2.815432 0
M  V30 2 C 3.935516 1.673197 3.078108 0
M  V30 3 N 5.251269 1.580124 3.444118 0
M  V30 4 N 5.532490 0.298373 3.600082 0
M  V30 5 C 4.451525 -0.462885 3.351155 0
M  V30 6 C 4.444358 -1.960623 3.444323 0
M  V30 7 C 4.219233 -2.626459 2.114986 0
M  V30 8 C 3.590087 -2.480922 4.551630 0
M  V30 9 N 3.438775 0.397478 3.020558 0
M  V30 10 C 2.105231 0.017868 2.677226 0 CFG=2
M  V30 11 C 1.779230 0.107811 1.230397 0
M  V30 12 C 0.335696 -0.290080 0.988070 0 CFG=1
M  V30 13 C 0.170606 -1.713101 1.549665 0
M  V30 14 C -0.262559 -1.403079 2.940482 0
M  V30 15 C -0.272430 0.067955 3.105569 0 CFG=1
M  V30 16 C 1.026058 0.712965 3.463440 0
M  V30 17 N -0.600612 0.542891 1.720780 0
M  V30 18 C -1.953071 0.189978 1.542558 0
M  V30 19 C -2.822222 0.829128 0.553376 0
M  V30 20 C -2.451312 0.771858 -0.888445 0 CFG=2
M  V30 21 N -2.328885 -0.590490 -1.310807 0
M  V30 22 C -3.227718 -1.093289 -2.311179 0
M  V30 23 O -4.162986 -0.445628 -2.894997 0
M  V30 24 C -3.285321 -2.477566 -2.902885 0
M  V30 25 C -4.413556 -2.458707 -3.904826 0
M  V30 26 C -4.606593 -3.798137 -4.560173 0
M  V30 27 C -3.319086 -4.596858 -4.612641 0
M  V30 28 F -3.346069 -5.413851 -5.721990 0
M  V30 29 F -3.121037 -5.391217 -3.513495 0
M  V30 30 C -2.186378 -3.605265 -4.810769 0
M  V30 31 C -1.957893 -2.779289 -3.562378 0
M  V30 32 C -1.360292 1.686341 -1.196108 0
M  V30 33 C -0.794395 2.722592 -0.486912 0
M  V30 34 C 0.261846 3.450182 -0.990376 0
M  V30 35 C 0.807237 3.181286 -2.227429 0
M  V30 36 C 0.259402 2.149908 -2.957234 0
M  V30 37 C -0.808364 1.416088 -2.445304 0
M  V30 38 H 4.025934 3.737177 2.669407 0
M  V30 39 H 2.690942 3.319508 3.725309 0
M  V30 40 H 2.631473 2.988846 1.918501 0
M  V30 41 H 5.515564 -2.210069 3.712101 0
M  V30 42 H 3.251486 -3.159995 2.128161 0
M  V30 43 H 4.344057 -1.931622 1.260959 0
M  V30 44 H 4.974572 -3.441405 1.907809 0
M  V30 45 H 4.150862 -3.315932 5.054951 0
M  V30 46 H 3.482315 -1.692573 5.306337 0
M  V30 47 H 2.638956 -2.954966 4.237669 0
M  V30 48 H 1.977873 -1.075281 2.929550 0
M  V30 49 H 1.952131 1.050403 0.727415 0
M  V30 50 H 2.388822 -0.663130 0.710125 0
M  V30 51 H 0.095019 -0.268666 -0.068795 0
M  V30 52 H -0.550261 -2.305668 0.951195 0
M  V30 53 H 1.128878 -2.269028 1.469079 0
M  V30 54 H -1.311491 -1.783965 3.070643 0
M  V30 55 H 0.314878 -1.946237 3.718037 0
M  V30 56 H -1.082557 0.453798 3.758663 0
M  V30 57 H 1.238091 0.751049 4.549105 0
M  V30 58 H 0.963729 1.761793 3.111456 0
M  V30 59 H -2.523308 0.257043 2.541464 0
M  V30 60 H -1.990242 -0.932299 1.370055 0
M  V30 61 H -3.886154 0.418016 0.596427 0
M  V30 62 H -2.993511 1.907428 0.863209 0
M  V30 63 H -3.346961 1.172087 -1.511263 0
M  V30 64 H -1.726105 -1.391141 -1.081728 0
M  V30 65 H -3.495612 -3.238733 -2.151354 0
M  V30 66 H -4.210573 -1.646190 -4.634977 0
M  V30 67 H -5.340069 -2.202083 -3.350358 0
M  V30 68 H -4.911944 -3.618003 -5.613795 0
M  V30 69 H -5.430335 -4.388212 -4.090911 0
M  V30 70 H -2.531289 -2.915553 -5.610265 0
M  V30 71 H -1.277654 -4.107031 -5.168706 0
M  V30 72 H -1.401490 -1.860206 -3.836143 0
M  V30 73 H -1.349199 -3.384130 -2.861800 0
M  V30 74 H -1.259660 2.893740 0.458374 0
M  V30 75 H 0.590899 4.233037 -0.304040 0
M  V30 76 H 1.621324 3.838419 -2.468864 0
M  V30 77 H 0.721217 1.979146 -3.918017 0
M  V30 78 H -1.116475 0.643461 -3.147074 0
M  V30 END ATOM
M  V30 BEGIN BOND
M  V30 1 1 1 2
M  V30 2 2 2 3
M  V30 3 1 3 4
M  V30 4 2 4 5
M  V30 5 1 5 6
M  V30 6 1 6 7
M  V30 7 1 6 8
M  V30 8 1 5 9
M  V30 9 1 9 10
M  V30 10 1 10 11
M  V30 11 1 11 12
M  V30 12 1 12 13
M  V30 13 1 13 14
M  V30 14 1 14 15
M  V30 15 1 15 16
M  V30 16 1 15 17
M  V30 17 1 17 18
M  V30 18 1 18 19
M  V30 19 1 19 20
M  V30 20 1 20 21
M  V30 21 1 21 22
M  V30 22 2 22 23
M  V30 23 1 22 24
M  V30 24 1 24 25
M  V30 25 1 25 26
M  V30 26 1 26 27
M  V30 27 1 27 28
M  V30 28 1 27 29
M  V30 29 1 27 30
M  V30 30 1 30 31
M  V30 31 1 20 32
M  V30 32 2 32 33
M  V30 33 1 33 34
M  V30 34 2 34 35
M  V30 35 1 35 36
M  V30 36 2 36 37
M  V30 37 1 9 2
M  V30 38 1 16 10
M  V30 39 1 31 24
M  V30 40 1 37 32
M  V30 41 1 17 12
M  V30 42 1 1 38
M  V30 43 1 1 39
M  V30 44 1 1 40
M  V30 45 1 6 41
M  V30 46 1 7 42
M  V30 47 1 7 43
M  V30 48 1 7 44
M  V30 49 1 8 45
M  V30 50 1 8 46
M  V30 51 1 8 47
M  V30 52 1 10 48 CFG=1
M  V30 53 1 11 49
M  V30 54 1 11 50
M  V30 55 1 12 51 CFG=3
M  V30 56 1 13 52
M  V30 57 1 13 53
M  V30 58 1 14 54
M  V30 59 1 14 55
M  V30 60 1 15 56 CFG=1
M  V30 61 1 16 57
M  V30 62 1 16 58
M  V30 63 1 18 59
M  V30 64 1 18 60
M  V30 65 1 19 61
M  V30 66 1 19 62
M  V30 67 1 20 63 CFG=3
M  V30 68 1 21 64
M  V30 69 1 24 65
M  V30 70 1 25 66
M  V30 71 1 25 67
M  V30 72 1 26 68
M  V30 73 1 26 69
M  V30 74 1 30 70
M  V30 75 1 30 71
M  V30 76 1 31 72
M  V30 77 1 31 73
M  V30 78 1 33 74
M  V30 79 1 34 75
M  V30 80 1 35 76
M  V30 81 1 36 77
M  V30 82 1 37 78
M  V30 END BOND
M  V30 END CTAB
M  END
>  <Dataset>  (553) 
OralDrugs

>  <Ligand_Instance>  (553) 
nan

>  <PDB_ID>  (553) 
nan

>  <Standardized_SMILES>  (553) 
Cc1nnc(C(C)C)n1[C@@H]1C[C@H]2CC[C@@H](C1)N2CC[C@H](NC(=O)C1CCC(F)(F)CC1)c1ccccc1

>  <Name>  (553) 
Maraviroc

>  <Pocket>  (553) 
nan

>  <ATP_Site>  (553) 
nan

>  <Peripheral>  (553) 
nan

>  <Num_H_Atoms_ProtBoundConf>  (553) 
nan

>  <Num_Resolved_Atoms>  (553) 
nan

>  <Num_Not_Resolved_Atoms>  (553) 
nan

$$$$
CHEMBL515408
     RDKit          3D

  0  0  0  0  0  0  0  0  0  0999 V3000
M  V30 BEGIN CTAB
M  V30 COUNTS 43 45 0 0 0
M  V30 BEGIN ATOM
M  V30 1 C -2.910802 -3.009418 0.788492 0
M  V30 2 C -2.522774 -1.745422 0.068720 0
M  V30 3 C -3.471699 -0.615264 0.410855 0
M  V30 4 N -1.162165 -1.415817 0.453482 0
M  V30 5 C -0.514025 -0.274947 -0.057012 0
M  V30 6 N -1.178610 0.539529 -0.928680 0
M  V30 7 C -0.370111 1.555005 -1.278158 0
M  V30 8 C -0.450289 2.665968 -2.094129 0
M  V30 9 C 0.619421 3.549779 -2.232536 0
M  V30 10 Cl 0.523197 4.962626 -3.267811 0
M  V30 11 C 1.786075 3.308216 -1.537334 0
M  V30 12 Cl 3.188836 4.352305 -1.638111 0
M  V30 13 C 1.864210 2.194091 -0.720184 0
M  V30 14 C 0.788350 1.309396 -0.583900 0
M  V30 15 N 0.717460 0.175684 0.180727 0
M  V30 16 C 1.713176 -0.381037 1.017212 0 CFG=1
M  V30 17 O 1.290172 -0.229796 2.355427 0
M  V30 18 C 2.085556 -1.113988 3.077430 0 CFG=1
M  V30 19 C 1.584704 -1.345841 4.461617 0
M  V30 20 O 2.433088 -2.246378 5.129024 0
M  V30 21 C 2.090807 -2.359535 2.227469 0 CFG=2
M  V30 22 O 3.220860 -3.147556 2.475702 0
M  V30 23 C 2.141436 -1.750290 0.852631 0 CFG=2
M  V30 24 O 3.511055 -1.779957 0.482908 0
M  V30 25 H -2.328108 -3.060388 1.738033 0
M  V30 26 H -2.552581 -3.866157 0.163819 0
M  V30 27 H -4.003347 -3.017854 0.965819 0
M  V30 28 H -2.518270 -1.949060 -1.020697 0
M  V30 29 H -3.142672 -0.022576 1.283715 0
M  V30 30 H -4.451624 -1.040572 0.690444 0
M  V30 31 H -3.532876 0.074843 -0.451137 0
M  V30 32 H -0.623005 -2.011794 1.118787 0
M  V30 33 H -1.379291 2.848452 -2.640518 0
M  V30 34 H 2.778722 2.006135 -0.176173 0
M  V30 35 H 2.605045 0.316738 0.961309 0
M  V30 36 H 3.130322 -0.750479 3.111128 0
M  V30 37 H 0.533458 -1.626446 4.501708 0
M  V30 38 H 1.721849 -0.376841 5.016267 0
M  V30 39 H 3.363065 -2.009767 4.815457 0
M  V30 40 H 1.156369 -2.964368 2.385835 0
M  V30 41 H 2.957907 -3.816955 3.166235 0
M  V30 42 H 1.653058 -2.366460 0.085853 0
M  V30 43 H 3.629019 -1.943187 -0.470935 0
M  V30 END ATOM
M  V30 BEGIN BOND
M  V30 1 1 1 2
M  V30 2 1 2 3
M  V30 3 1 2 4
M  V30 4 1 4 5
M  V30 5 2 5 6
M  V30 6 1 6 7
M  V30 7 2 7 8
M  V30 8 1 8 9
M  V30 9 1 9 10
M  V30 10 2 9 11
M  V30 11 1 11 12
M  V30 12 1 11 13
M  V30 13 2 13 14
M  V30 14 1 14 15
M  V30 15 1 15 16
M  V30 16 1 16 17
M  V30 17 1 17 18
M  V30 18 1 18 19
M  V30 19 1 19 20
M  V30 20 1 18 21
M  V30 21 1 21 22
M  V30 22 1 21 23
M  V30 23 1 23 24
M  V30 24 1 15 5
M  V30 25 1 23 16
M  V30 26 1 14 7
M  V30 27 1 1 25
M  V30 28 1 1 26
M  V30 29 1 1 27
M  V30 30 1 2 28
M  V30 31 1 3 29
M  V30 32 1 3 30
M  V30 33 1 3 31
M  V30 34 1 4 32
M  V30 35 1 8 33
M  V30 36 1 13 34
M  V30 37 1 16 35 CFG=1
M  V30 38 1 18 36 CFG=1
M  V30 39 1 19 37
M  V30 40 1 19 38
M  V30 41 1 20 39
M  V30 42 1 21 40 CFG=3
M  V30 43 1 22 41
M  V30 44 1 23 42 CFG=3
M  V30 45 1 24 43
M  V30 END BOND
M  V30 END CTAB
M  END
>  <Dataset>  (554) 
OralDrugs

>  <Ligand_Instance>  (554) 
nan

>  <PDB_ID>  (554) 
nan

>  <Standardized_SMILES>  (554) 
CC(C)Nc1nc2cc(Cl)c(Cl)cc2n1[C@H]1O[C@@H](CO)[C@H](O)[C@@H]1O

>  <Name>  (554) 
Maribavir

>  <Pocket>  (554) 
nan

>  <ATP_Site>  (554) 
nan

>  <Peripheral>  (554) 
nan

>  <Num_H_Atoms_ProtBoundConf>  (554) 
nan

>  <Num_Resolved_Atoms>  (554) 
nan

>  <Num_Not_Resolved_Atoms>  (554) 
nan

$$$$
CHEMBL4297517
     RDKit          3D

  0  0  0  0  0  0  0  0  0  0999 V3000
M  V30 BEGIN CTAB
M  V30 COUNTS 39 40 0 0 0
M  V30 BEGIN ATOM
M  V30 1 C -0.177984 -3.847687 3.501921 0
M  V30 2 C -0.087106 -4.188994 2.013115 0
M  V30 3 C -1.171409 -5.217315 1.757600 0
M  V30 4 N -0.207490 -3.029076 1.190252 0
M  V30 5 C 0.893553 -2.229177 1.124804 0
M  V30 6 O 1.951682 -2.512400 1.761453 0
M  V30 7 C 0.862344 -1.079040 0.346584 0
M  V30 8 C -0.243557 -0.692745 -0.379057 0
M  V30 9 N -0.300409 0.477971 -1.180615 0
M  V30 10 C 0.789740 1.402065 -1.317156 0 CFG=1
M  V30 11 C 0.385024 2.521197 -2.270971 0
M  V30 12 C 1.140608 2.096599 -0.038894 0
M  V30 13 C 2.390831 2.334008 0.510202 0
M  V30 14 C 2.486091 2.997762 1.706538 0
M  V30 15 C 1.389136 3.451031 2.407971 0
M  V30 16 C 0.146322 3.213021 1.858581 0
M  V30 17 C 0.007240 2.540880 0.642782 0
M  V30 18 N -1.287707 -1.531793 -0.263521 0
M  V30 19 C -1.286367 -2.651506 0.481847 0
M  V30 20 O -2.289497 -3.386149 0.545512 0
M  V30 21 H 0.704502 -3.304564 3.850663 0
M  V30 22 H -0.427677 -4.760360 4.063483 0
M  V30 23 H -1.095830 -3.199639 3.580840 0
M  V30 24 H 0.887099 -4.717598 1.817643 0
M  V30 25 H -0.851166 -6.181056 2.249980 0
M  V30 26 H -2.112689 -4.955793 2.266878 0
M  V30 27 H -1.277486 -5.487470 0.688753 0
M  V30 28 H 1.750339 -0.476794 0.321002 0
M  V30 29 H -1.202647 0.653060 -1.690689 0
M  V30 30 H 1.693395 0.904845 -1.675148 0
M  V30 31 H -0.631262 2.869190 -1.954114 0
M  V30 32 H 1.053469 3.398945 -2.135106 0
M  V30 33 H 0.394488 2.185272 -3.325576 0
M  V30 34 H 3.190484 1.948887 -0.099069 0
M  V30 35 H 3.485577 3.149811 2.077901 0
M  V30 36 H 1.528939 3.975303 3.358917 0
M  V30 37 H -0.694382 3.588052 2.445125 0
M  V30 38 H -1.020085 2.405340 0.297863 0
M  V30 39 H -2.179152 -1.304888 -0.792178 0
M  V30 END ATOM
M  V30 BEGIN BOND
M  V30 1 1 1 2
M  V30 2 1 2 3
M  V30 3 1 2 4
M  V30 4 1 4 5
M  V30 5 2 5 6
M  V30 6 1 5 7
M  V30 7 2 7 8
M  V30 8 1 8 9
M  V30 9 1 9 10
M  V30 10 1 10 11
M  V30 11 1 10 12
M  V30 12 2 12 13
M  V30 13 1 13 14
M  V30 14 2 14 15
M  V30 15 1 15 16
M  V30 16 2 16 17
M  V30 17 1 8 18
M  V30 18 1 18 19
M  V30 19 2 19 20
M  V30 20 1 19 4
M  V30 21 1 17 12
M  V30 22 1 1 21
M  V30 23 1 1 22
M  V30 24 1 1 23
M  V30 25 1 2 24
M  V30 26 1 3 25
M  V30 27 1 3 26
M  V30 28 1 3 27
M  V30 29 1 7 28
M  V30 30 1 9 29
M  V30 31 1 10 30 CFG=3
M  V30 32 1 11 31
M  V30 33 1 11 32
M  V30 34 1 11 33
M  V30 35 1 13 34
M  V30 36 1 14 35
M  V30 37 1 15 36
M  V30 38 1 16 37
M  V30 39 1 17 38
M  V30 40 1 18 39
M  V30 END BOND
M  V30 END CTAB
M  END
>  <Dataset>  (555) 
OralDrugs

>  <Ligand_Instance>  (555) 
nan

>  <PDB_ID>  (555) 
nan

>  <Standardized_SMILES>  (555) 
CC(C)n1c(=O)cc(N[C@@H](C)c2ccccc2)[nH]c1=O

>  <Name>  (555) 
Mavacamten

>  <Pocket>  (555) 
nan

>  <ATP_Site>  (555) 
nan

>  <Peripheral>  (555) 
nan

>  <Num_H_Atoms_ProtBoundConf>  (555) 
nan

>  <Num_Resolved_Atoms>  (555) 
nan

>  <Num_Not_Resolved_Atoms>  (555) 
nan

$$$$
CHEMBL781
     RDKit          3D

  0  0  0  0  0  0  0  0  0  0999 V3000
M  V30 BEGIN CTAB
M  V30 COUNTS 33 36 0 0 0
M  V30 BEGIN ATOM
M  V30 1 O -0.234731 0.256546 2.552987 0
M  V30 2 C -0.240369 -0.312241 1.256188 0
M  V30 3 C 0.409577 -1.630340 1.301115 0
M  V30 4 C 1.531672 -1.721611 2.112783 0
M  V30 5 C 2.231231 -2.914264 2.232612 0
M  V30 6 C 1.826256 -4.044069 1.544259 0
M  V30 7 Cl 2.630937 -5.603586 1.618388 0
M  V30 8 C 0.716358 -3.976236 0.733835 0
M  V30 9 C 0.040802 -2.777603 0.634151 0
M  V30 10 C 0.511897 0.627995 0.382355 0
M  V30 11 C 1.819568 1.045077 0.407239 0
M  V30 12 C 2.289802 1.931741 -0.531648 0
M  V30 13 C 1.511717 2.456668 -1.540953 0
M  V30 14 C 0.182052 2.033755 -1.567569 0
M  V30 15 C -0.307798 1.133623 -0.619554 0
M  V30 16 C -1.659709 0.557517 -0.445666 0
M  V30 17 N -2.807841 0.597993 -0.984772 0
M  V30 18 C -3.718378 -0.253201 -0.267169 0
M  V30 19 C -2.883569 -0.811863 0.850558 0
M  V30 20 N -1.550132 -0.282901 0.691420 0
M  V30 21 H 0.616652 0.748858 2.649664 0
M  V30 22 H 1.995632 -0.957722 2.723217 0
M  V30 23 H 3.111020 -3.085379 2.834759 0
M  V30 24 H 0.324610 -4.802456 0.158668 0
M  V30 25 H -0.829328 -2.691952 0.008081 0
M  V30 26 H 2.555697 0.732388 1.125563 0
M  V30 27 H 3.317248 2.282237 -0.541044 0
M  V30 28 H 1.883034 3.152052 -2.276489 0
M  V30 29 H -0.454884 2.429436 -2.349895 0
M  V30 30 H -4.027412 -1.050055 -0.994363 0
M  V30 31 H -4.614986 0.288055 0.098133 0
M  V30 32 H -2.936871 -1.919656 0.832232 0
M  V30 33 H -3.298776 -0.420877 1.806022 0
M  V30 END ATOM
M  V30 BEGIN BOND
M  V30 1 1 1 2
M  V30 2 1 2 3
M  V30 3 2 3 4
M  V30 4 1 4 5
M  V30 5 2 5 6
M  V30 6 1 6 7
M  V30 7 1 6 8
M  V30 8 2 8 9
M  V30 9 1 2 10
M  V30 10 2 10 11
M  V30 11 1 11 12
M  V30 12 2 12 13
M  V30 13 1 13 14
M  V30 14 2 14 15
M  V30 15 1 15 16
M  V30 16 2 16 17
M  V30 17 1 17 18
M  V30 18 1 18 19
M  V30 19 1 19 20
M  V30 20 1 20 2
M  V30 21 1 9 3
M  V30 22 1 15 10
M  V30 23 1 20 16
M  V30 24 1 1 21
M  V30 25 1 4 22
M  V30 26 1 5 23
M  V30 27 1 8 24
M  V30 28 1 9 25
M  V30 29 1 11 26
M  V30 30 1 12 27
M  V30 31 1 13 28
M  V30 32 1 14 29
M  V30 33 1 18 30
M  V30 34 1 18 31
M  V30 35 1 19 32
M  V30 36 1 19 33
M  V30 END BOND
M  V30 END CTAB
M  END
>  <Dataset>  (556) 
OralDrugs

>  <Ligand_Instance>  (556) 
nan

>  <PDB_ID>  (556) 
nan

>  <Standardized_SMILES>  (556) 
OC1(c2ccc(Cl)cc2)c2ccccc2C2=NCCN21

>  <Name>  (556) 
Mazindol

>  <Pocket>  (556) 
nan

>  <ATP_Site>  (556) 
nan

>  <Peripheral>  (556) 
nan

>  <Num_H_Atoms_ProtBoundConf>  (556) 
nan

>  <Num_Resolved_Atoms>  (556) 
nan

>  <Num_Not_Resolved_Atoms>  (556) 
nan

$$$$
CHEMBL685
     RDKit          3D

  0  0  0  0  0  0  0  0  0  0999 V3000
M  V30 BEGIN CTAB
M  V30 COUNTS 35 37 0 0 0
M  V30 BEGIN ATOM
M  V30 1 C 1.356345 -7.927797 2.253181 0
M  V30 2 O 1.627485 -6.581946 2.643023 0
M  V30 3 C 1.220273 -5.502567 1.911613 0
M  V30 4 O 0.598802 -5.853635 0.882143 0
M  V30 5 N 1.411924 -4.123875 2.173519 0
M  V30 6 C 0.946988 -3.070766 1.342792 0
M  V30 7 N 1.146417 -1.761643 1.643818 0
M  V30 8 C 0.592513 -1.021430 0.669496 0
M  V30 9 C 0.478264 0.321254 0.431493 0
M  V30 10 C -0.133869 0.930055 -0.637997 0
M  V30 11 C -0.341198 2.322025 -0.949521 0
M  V30 12 O -0.447187 2.517929 -2.210552 0
M  V30 13 C -0.460379 3.531247 -0.160465 0
M  V30 14 C -0.017013 3.806538 1.108195 0
M  V30 15 C -0.214591 4.994659 1.786610 0
M  V30 16 C -0.910129 5.995829 1.159119 0
M  V30 17 C -1.385584 5.799436 -0.112308 0
M  V30 18 C -1.154314 4.601243 -0.723770 0
M  V30 19 C -0.656559 -0.049199 -1.504797 0
M  V30 20 C -0.588389 -1.395420 -1.345698 0
M  V30 21 C 0.046598 -1.893329 -0.240408 0
M  V30 22 N 0.271223 -3.143472 0.186172 0
M  V30 23 H 1.753526 -8.162828 1.248158 0
M  V30 24 H 0.237171 -8.044567 2.220656 0
M  V30 25 H 1.748056 -8.615657 3.006791 0
M  V30 26 H 1.939978 -3.961495 3.054360 0
M  V30 27 H 0.937375 0.934019 1.179181 0
M  V30 28 H 0.531798 3.074520 1.644065 0
M  V30 29 H 0.170891 5.125896 2.787894 0
M  V30 30 H -1.073044 6.921532 1.676944 0
M  V30 31 H -1.929866 6.613201 -0.573406 0
M  V30 32 H -1.570804 4.545751 -1.725669 0
M  V30 33 H -1.179790 0.270992 -2.417145 0
M  V30 34 H -1.015962 -2.086786 -2.053533 0
M  V30 35 H -0.042785 -3.981168 -0.324664 0
M  V30 END ATOM
M  V30 BEGIN BOND
M  V30 1 1 1 2
M  V30 2 1 2 3
M  V30 3 2 3 4
M  V30 4 1 3 5
M  V30 5 1 5 6
M  V30 6 2 6 7
M  V30 7 1 7 8
M  V30 8 2 8 9
M  V30 9 1 9 10
M  V30 10 1 10 11
M  V30 11 2 11 12
M  V30 12 1 11 13
M  V30 13 2 13 14
M  V30 14 1 14 15
M  V30 15 2 15 16
M  V30 16 1 16 17
M  V30 17 2 17 18
M  V30 18 2 10 19
M  V30 19 1 19 20
M  V30 20 2 20 21
M  V30 21 1 21 22
M  V30 22 1 22 6
M  V30 23 1 21 8
M  V30 24 1 18 13
M  V30 25 1 1 23
M  V30 26 1 1 24
M  V30 27 1 1 25
M  V30 28 1 5 26
M  V30 29 1 9 27
M  V30 30 1 14 28
M  V30 31 1 15 29
M  V30 32 1 16 30
M  V30 33 1 17 31
M  V30 34 1 18 32
M  V30 35 1 19 33
M  V30 36 1 20 34
M  V30 37 1 22 35
M  V30 END BOND
M  V30 END CTAB
M  END
>  <Dataset>  (557) 
OralDrugs

>  <Ligand_Instance>  (557) 
nan

>  <PDB_ID>  (557) 
nan

>  <Standardized_SMILES>  (557) 
COC(=O)Nc1nc2cc(C(=O)c3ccccc3)ccc2[nH]1

>  <Name>  (557) 
Mebendazole

>  <Pocket>  (557) 
nan

>  <ATP_Site>  (557) 
nan

>  <Peripheral>  (557) 
nan

>  <Num_H_Atoms_ProtBoundConf>  (557) 
nan

>  <Num_Resolved_Atoms>  (557) 
nan

>  <Num_Not_Resolved_Atoms>  (557) 
nan

$$$$
CHEMBL1200922
     RDKit          3D

  0  0  0  0  0  0  0  0  0  0999 V3000
M  V30 BEGIN CTAB
M  V30 COUNTS 36 35 0 0 0
M  V30 BEGIN ATOM
M  V30 1 C -3.229073 -1.291019 0.952984 0
M  V30 2 C -1.897251 -0.734105 0.494188 0
M  V30 3 C -0.829049 -1.388157 1.311959 0
M  V30 4 C -0.914654 -2.880263 1.066513 0
M  V30 5 C 0.558861 -0.882686 1.070318 0
M  V30 6 C 1.427003 -1.753203 2.061071 0
M  V30 7 C 1.153512 -1.244235 -0.251530 0
M  V30 8 O 0.536023 -0.846733 -1.407122 0
M  V30 9 C 0.325247 0.369631 -1.962816 0
M  V30 10 N -0.388575 0.351700 -3.189412 0
M  V30 11 O 0.690156 1.459086 -1.506891 0
M  V30 12 C 0.870491 0.499084 1.451020 0
M  V30 13 O 2.211773 0.806780 1.123391 0
M  V30 14 C 2.816363 2.008535 1.346335 0
M  V30 15 N 4.174082 2.245230 0.988599 0
M  V30 16 O 1.925928 2.708737 1.879195 0
M  V30 17 H -3.200442 -1.493652 2.062028 0
M  V30 18 H -3.997670 -0.502032 0.828984 0
M  V30 19 H -3.533478 -2.181739 0.366620 0
M  V30 20 H -1.965619 0.352585 0.630719 0
M  V30 21 H -1.830565 -1.018072 -0.592421 0
M  V30 22 H -1.107387 -1.244450 2.376607 0
M  V30 23 H -1.935487 -3.259812 1.003047 0
M  V30 24 H -0.298770 -3.205124 0.194962 0
M  V30 25 H -0.440474 -3.426184 1.935323 0
M  V30 26 H 1.453117 -2.751139 1.609355 0
M  V30 27 H 2.439282 -1.319155 2.125400 0
M  V30 28 H 0.864282 -1.758239 3.002233 0
M  V30 29 H 1.495249 -2.313867 -0.283605 0
M  V30 30 H 2.173089 -0.705068 -0.256378 0
M  V30 31 H -0.389723 0.047084 -4.204980 0
M  V30 32 H -1.282562 0.643016 -3.681449 0
M  V30 33 H 0.210133 1.265913 1.034367 0
M  V30 34 H 0.850479 0.667233 2.572070 0
M  V30 35 H 4.949942 2.435738 1.687322 0
M  V30 36 H 4.329434 2.211710 -0.043023 0
M  V30 END ATOM
M  V30 BEGIN BOND
M  V30 1 1 1 2
M  V30 2 1 2 3
M  V30 3 1 3 4
M  V30 4 1 3 5
M  V30 5 1 5 6
M  V30 6 1 5 7
M  V30 7 1 7 8
M  V30 8 1 8 9
M  V30 9 1 9 10
M  V30 10 2 9 11
M  V30 11 1 5 12
M  V30 12 1 12 13
M  V30 13 1 13 14
M  V30 14 1 14 15
M  V30 15 2 14 16
M  V30 16 1 1 17
M  V30 17 1 1 18
M  V30 18 1 1 19
M  V30 19 1 2 20
M  V30 20 1 2 21
M  V30 21 1 3 22
M  V30 22 1 4 23
M  V30 23 1 4 24
M  V30 24 1 4 25
M  V30 25 1 6 26
M  V30 26 1 6 27
M  V30 27 1 6 28
M  V30 28 1 7 29
M  V30 29 1 7 30
M  V30 30 1 10 31
M  V30 31 1 10 32
M  V30 32 1 12 33
M  V30 33 1 12 34
M  V30 34 1 15 35
M  V30 35 1 15 36
M  V30 END BOND
M  V30 END CTAB
M  END
>  <Dataset>  (558) 
OralDrugs

>  <Ligand_Instance>  (558) 
nan

>  <PDB_ID>  (558) 
nan

>  <Standardized_SMILES>  (558) 
CCC(C)C(C)(COC(N)=O)COC(N)=O

>  <Name>  (558) 
Mebutamate

>  <Pocket>  (558) 
nan

>  <ATP_Site>  (558) 
nan

>  <Peripheral>  (558) 
nan

>  <Num_H_Atoms_ProtBoundConf>  (558) 
nan

>  <Num_Resolved_Atoms>  (558) 
nan

>  <Num_Not_Resolved_Atoms>  (558) 
nan

$$$$
CHEMBL267936
     RDKit          3D

  0  0  0  0  0  0  0  0  0  0999 V3000
M  V30 BEGIN CTAB
M  V30 COUNTS 33 34 0 0 0
M  V30 BEGIN ATOM
M  V30 1 C -3.054016 -1.063540 0.332435 0
M  V30 2 N -1.894527 -0.225426 0.589236 0
M  V30 3 C -0.701578 -1.014702 0.634305 0
M  V30 4 C -0.849746 -2.019930 1.737940 0
M  V30 5 C -0.315129 -1.673396 -0.642995 0
M  V30 6 C -0.233863 -0.627608 -1.722988 0
M  V30 7 C 1.103484 0.082897 -1.548559 0
M  V30 8 C 1.507267 -0.412069 -0.194240 0
M  V30 9 C 1.185044 -1.894662 -0.387276 0
M  V30 10 C 0.482526 -0.081374 0.869245 0
M  V30 11 C 0.088391 1.368216 0.831125 0
M  V30 12 C 1.103845 -0.332730 2.229343 0
M  V30 13 H -3.236048 -1.752901 1.200776 0
M  V30 14 H -2.999475 -1.616513 -0.607668 0
M  V30 15 H -3.941476 -0.372672 0.342340 0
M  V30 16 H -2.020710 0.172802 1.545993 0
M  V30 17 H -1.403453 -1.536571 2.580847 0
M  V30 18 H 0.076945 -2.470741 2.096819 0
M  V30 19 H -1.453955 -2.875044 1.315557 0
M  V30 20 H -0.826171 -2.582116 -0.923022 0
M  V30 21 H -0.319810 -1.021713 -2.747163 0
M  V30 22 H -1.034812 0.131437 -1.593193 0
M  V30 23 H 1.800170 -0.352816 -2.280563 0
M  V30 24 H 1.022445 1.183150 -1.618828 0
M  V30 25 H 2.532886 -0.216557 0.104059 0
M  V30 26 H 1.664066 -2.303214 -1.283746 0
M  V30 27 H 1.373109 -2.469418 0.521376 0
M  V30 28 H -0.879610 1.553085 0.334299 0
M  V30 29 H 0.840975 1.973110 0.260634 0
M  V30 30 H 0.077676 1.836389 1.850286 0
M  V30 31 H 1.844838 0.500114 2.361810 0
M  V30 32 H 0.366717 -0.218990 3.026284 0
M  V30 33 H 1.709796 -1.258728 2.267658 0
M  V30 END ATOM
M  V30 BEGIN BOND
M  V30 1 1 1 2
M  V30 2 1 2 3
M  V30 3 1 3 4
M  V30 4 1 3 5
M  V30 5 1 5 6
M  V30 6 1 6 7
M  V30 7 1 7 8
M  V30 8 1 8 9
M  V30 9 1 8 10
M  V30 10 1 10 11
M  V30 11 1 10 12
M  V30 12 1 10 3
M  V30 13 1 9 5
M  V30 14 1 1 13
M  V30 15 1 1 14
M  V30 16 1 1 15
M  V30 17 1 2 16
M  V30 18 1 4 17
M  V30 19 1 4 18
M  V30 20 1 4 19
M  V30 21 1 5 20
M  V30 22 1 6 21
M  V30 23 1 6 22
M  V30 24 1 7 23
M  V30 25 1 7 24
M  V30 26 1 8 25
M  V30 27 1 9 26
M  V30 28 1 9 27
M  V30 29 1 11 28
M  V30 30 1 11 29
M  V30 31 1 11 30
M  V30 32 1 12 31
M  V30 33 1 12 32
M  V30 34 1 12 33
M  V30 END BOND
M  V30 END CTAB
M  END
>  <Dataset>  (559) 
OralDrugs

>  <Ligand_Instance>  (559) 
nan

>  <PDB_ID>  (559) 
nan

>  <Standardized_SMILES>  (559) 
CNC1(C)C2CCC(C2)C1(C)C

>  <Name>  (559) 
Mecamylamine

>  <Pocket>  (559) 
nan

>  <ATP_Site>  (559) 
nan

>  <Peripheral>  (559) 
nan

>  <Num_H_Atoms_ProtBoundConf>  (559) 
nan

>  <Num_Resolved_Atoms>  (559) 
nan

>  <Num_Not_Resolved_Atoms>  (559) 
nan

$$$$
CHEMBL1623
     RDKit          3D

  0  0  0  0  0  0  0  0  0  0999 V3000
M  V30 BEGIN CTAB
M  V30 COUNTS 55 58 0 0 0
M  V30 BEGIN ATOM
M  V30 1 C 1.261953 -2.205550 5.161602 0
M  V30 2 C 2.061000 -1.461360 4.133593 0
M  V30 3 C 2.678747 -0.271203 4.472033 0
M  V30 4 C 3.416515 0.422338 3.534884 0
M  V30 5 C 3.530238 -0.085619 2.257265 0
M  V30 6 C 2.933234 -1.267405 1.871927 0
M  V30 7 C 3.026364 -1.856897 0.504656 0
M  V30 8 N 1.951950 -1.360550 -0.274864 0
M  V30 9 C 1.941970 0.075135 -0.419739 0
M  V30 10 C 1.055250 0.361287 -1.625075 0
M  V30 11 N -0.150147 -0.370328 -1.580779 0
M  V30 12 C -0.979520 -0.351731 -0.446322 0
M  V30 13 C -1.596125 0.924023 -0.045208 0
M  V30 14 C -1.028767 2.159047 0.150464 0
M  V30 15 C -1.693671 3.305354 0.518332 0
M  V30 16 C -3.056511 3.237791 0.716296 0
M  V30 17 C -3.719374 2.065406 0.550466 0
M  V30 18 C -2.984165 0.973594 0.183901 0
M  V30 19 C -2.100527 -1.313170 -0.791112 0
M  V30 20 C -2.642680 -1.187324 -2.066579 0
M  V30 21 C -3.672416 -2.043020 -2.434868 0
M  V30 22 C -4.125248 -2.982727 -1.539607 0
M  V30 23 Cl -5.425035 -4.107118 -1.921415 0
M  V30 24 C -3.590303 -3.120335 -0.255885 0
M  V30 25 C -2.569726 -2.251529 0.070260 0
M  V30 26 C 0.188373 -1.767514 -1.905396 0
M  V30 27 C 1.597057 -2.088840 -1.441318 0
M  V30 28 C 2.204739 -1.927987 2.842026 0
M  V30 29 H 1.499324 -1.780235 6.155667 0
M  V30 30 H 1.562084 -3.275542 5.087276 0
M  V30 31 H 0.165036 -2.116205 4.938418 0
M  V30 32 H 2.580190 0.119132 5.487325 0
M  V30 33 H 3.911782 1.357903 3.772044 0
M  V30 34 H 4.103099 0.452738 1.529771 0
M  V30 35 H 3.988899 -1.483684 0.074966 0
M  V30 36 H 3.031007 -2.944365 0.551520 0
M  V30 37 H 1.579207 0.490173 0.516425 0
M  V30 38 H 2.976458 0.408185 -0.587150 0
M  V30 39 H 1.659718 -0.110324 -2.476335 0
M  V30 40 H 1.018815 1.407348 -1.924726 0
M  V30 41 H -0.501031 -0.742082 0.485363 0
M  V30 42 H 0.036808 2.228325 0.009553 0
M  V30 43 H -1.133180 4.221882 0.641363 0
M  V30 44 H -3.535769 4.162038 1.003987 0
M  V30 45 H -4.786406 1.993991 0.701396 0
M  V30 46 H -3.560789 0.040698 0.059901 0
M  V30 47 H -2.302326 -0.447149 -2.802973 0
M  V30 48 H -4.134731 -1.990800 -3.419124 0
M  V30 49 H -3.932154 -3.851017 0.459776 0
M  V30 50 H -2.077820 -2.261352 1.031760 0
M  V30 51 H -0.554240 -2.487133 -1.576698 0
M  V30 52 H 0.212999 -1.797361 -3.026318 0
M  V30 53 H 1.574659 -3.163231 -1.162865 0
M  V30 54 H 2.342223 -2.020011 -2.264783 0
M  V30 55 H 1.708047 -2.856624 2.622166 0
M  V30 END ATOM
M  V30 BEGIN BOND
M  V30 1 1 1 2
M  V30 2 2 2 3
M  V30 3 1 3 4
M  V30 4 2 4 5
M  V30 5 1 5 6
M  V30 6 1 6 7
M  V30 7 1 7 8
M  V30 8 1 8 9
M  V30 9 1 9 10
M  V30 10 1 10 11
M  V30 11 1 11 12
M  V30 12 1 12 13
M  V30 13 2 13 14
M  V30 14 1 14 15
M  V30 15 2 15 16
M  V30 16 1 16 17
M  V30 17 2 17 18
M  V30 18 1 12 19
M  V30 19 2 19 20
M  V30 20 1 20 21
M  V30 21 2 21 22
M  V30 22 1 22 23
M  V30 23 1 22 24
M  V30 24 2 24 25
M  V30 25 1 11 26
M  V30 26 1 26 27
M  V30 27 2 6 28
M  V30 28 1 28 2
M  V30 29 1 27 8
M  V30 30 1 18 13
M  V30 31 1 25 19
M  V30 32 1 1 29
M  V30 33 1 1 30
M  V30 34 1 1 31
M  V30 35 1 3 32
M  V30 36 1 4 33
M  V30 37 1 5 34
M  V30 38 1 7 35
M  V30 39 1 7 36
M  V30 40 1 9 37
M  V30 41 1 9 38
M  V30 42 1 10 39
M  V30 43 1 10 40
M  V30 44 1 12 41
M  V30 45 1 14 42
M  V30 46 1 15 43
M  V30 47 1 16 44
M  V30 48 1 17 45
M  V30 49 1 18 46
M  V30 50 1 20 47
M  V30 51 1 21 48
M  V30 52 1 24 49
M  V30 53 1 25 50
M  V30 54 1 26 51
M  V30 55 1 26 52
M  V30 56 1 27 53
M  V30 57 1 27 54
M  V30 58 1 28 55
M  V30 END BOND
M  V30 END CTAB
M  END
>  <Dataset>  (560) 
OralDrugs

>  <Ligand_Instance>  (560) 
nan

>  <PDB_ID>  (560) 
nan

>  <Standardized_SMILES>  (560) 
Cc1cccc(CN2CCN(C(c3ccccc3)c3ccc(Cl)cc3)CC2)c1

>  <Name>  (560) 
Meclizine

>  <Pocket>  (560) 
nan

>  <ATP_Site>  (560) 
nan

>  <Peripheral>  (560) 
nan

>  <Num_H_Atoms_ProtBoundConf>  (560) 
nan

>  <Num_Resolved_Atoms>  (560) 
nan

>  <Num_Not_Resolved_Atoms>  (560) 
nan

$$$$
CHEMBL1562610
     RDKit          3D

  0  0  0  0  0  0  0  0  0  0999 V3000
M  V30 BEGIN CTAB
M  V30 COUNTS 30 31 0 0 0
M  V30 BEGIN ATOM
M  V30 1 C -2.664006 -3.683801 1.218213 0
M  V30 2 C -1.263884 -3.206153 1.499418 0
M  V30 3 C -0.303024 -4.139194 1.828323 0
M  V30 4 C 0.964483 -3.656864 2.077525 0
M  V30 5 C 1.268534 -2.314562 2.005080 0
M  V30 6 Cl 2.873150 -1.697245 2.319830 0
M  V30 7 C 0.290316 -1.387766 1.672721 0
M  V30 8 N 0.511501 0.013958 1.574187 0
M  V30 9 C 0.898334 0.585619 0.361451 0
M  V30 10 C 1.045096 -0.280095 -0.697793 0
M  V30 11 C 1.432568 0.280317 -1.919309 0
M  V30 12 C 1.660867 1.652769 -2.062229 0
M  V30 13 C 1.506854 2.505070 -0.981751 0
M  V30 14 C 1.124817 1.933633 0.212177 0
M  V30 15 C 0.972181 2.857222 1.326756 0
M  V30 16 O 1.161126 4.099441 1.267239 0
M  V30 17 O 0.606130 2.614764 2.639749 0
M  V30 18 C -0.990999 -1.850535 1.418130 0
M  V30 19 Cl -2.253377 -0.722983 0.996620 0
M  V30 20 H -3.231828 -3.437010 2.150853 0
M  V30 21 H -3.040499 -3.015255 0.426502 0
M  V30 22 H -2.682124 -4.747261 0.954360 0
M  V30 23 H -0.561395 -5.192489 1.880466 0
M  V30 24 H 1.741095 -4.365222 2.338426 0
M  V30 25 H 0.304171 0.301730 2.553026 0
M  V30 26 H 0.878941 -1.344322 -0.629990 0
M  V30 27 H 1.558024 -0.380343 -2.780840 0
M  V30 28 H 1.961973 2.052522 -3.031254 0
M  V30 29 H 1.684769 3.555832 -1.103556 0
M  V30 30 H -0.250920 2.951081 3.068575 0
M  V30 END ATOM
M  V30 BEGIN BOND
M  V30 1 1 1 2
M  V30 2 2 2 3
M  V30 3 1 3 4
M  V30 4 2 4 5
M  V30 5 1 5 6
M  V30 6 1 5 7
M  V30 7 1 7 8
M  V30 8 1 8 9
M  V30 9 2 9 10
M  V30 10 1 10 11
M  V30 11 2 11 12
M  V30 12 1 12 13
M  V30 13 2 13 14
M  V30 14 1 14 15
M  V30 15 2 15 16
M  V30 16 1 15 17
M  V30 17 2 7 18
M  V30 18 1 18 19
M  V30 19 1 18 2
M  V30 20 1 14 9
M  V30 21 1 1 20
M  V30 22 1 1 21
M  V30 23 1 1 22
M  V30 24 1 3 23
M  V30 25 1 4 24
M  V30 26 1 8 25
M  V30 27 1 10 26
M  V30 28 1 11 27
M  V30 29 1 12 28
M  V30 30 1 13 29
M  V30 31 1 17 30
M  V30 END BOND
M  V30 END CTAB
M  END
>  <Dataset>  (561) 
OralDrugs

>  <Ligand_Instance>  (561) 
nan

>  <PDB_ID>  (561) 
nan

>  <Standardized_SMILES>  (561) 
Cc1ccc(Cl)c(Nc2ccccc2C(=O)O)c1Cl

>  <Name>  (561) 
Meclofenamate Sodium

>  <Pocket>  (561) 
nan

>  <ATP_Site>  (561) 
nan

>  <Peripheral>  (561) 
nan

>  <Num_H_Atoms_ProtBoundConf>  (561) 
nan

>  <Num_Resolved_Atoms>  (561) 
nan

>  <Num_Not_Resolved_Atoms>  (561) 
nan

$$$$
CHEMBL717
     RDKit          3D

  0  0  0  0  0  0  0  0  0  0999 V3000
M  V30 BEGIN CTAB
M  V30 COUNTS 62 65 0 0 0
M  V30 BEGIN ATOM
M  V30 1 C 1.607069 -3.970206 2.870626 0
M  V30 2 C 2.458855 -2.891650 2.345485 0
M  V30 3 O 3.615294 -2.750933 2.819746 0
M  V30 4 O 1.991000 -2.062429 1.358762 0
M  V30 5 C 2.721577 -0.996366 0.779610 0 CFG=2
M  V30 6 C 3.936921 -1.477868 0.143985 0
M  V30 7 C 4.947699 -0.674790 -0.537803 0
M  V30 8 O 4.052107 -2.711593 0.235135 0
M  V30 9 C 2.875934 0.147610 1.746604 0
M  V30 10 C 1.576576 0.967286 1.654125 0
M  V30 11 C 0.713218 0.031482 0.906482 0 CFG=1
M  V30 12 C -0.554568 0.543131 0.320951 0 CFG=2
M  V30 13 C -1.400768 1.258713 1.288992 0
M  V30 14 C -2.599467 0.534218 1.789269 0 CFG=2
M  V30 15 C -2.250006 -0.276767 3.043824 0
M  V30 16 C -3.281986 -0.321577 0.787032 0
M  V30 17 C -4.426742 -0.860022 1.165715 0
M  V30 18 C -5.152019 -1.720630 0.212794 0
M  V30 19 O -6.238378 -2.223010 0.563666 0
M  V30 20 C -4.614900 -1.994575 -1.141356 0
M  V30 21 C -3.139800 -1.759859 -1.258395 0
M  V30 22 C -2.650676 -0.521235 -0.562144 0 CFG=1
M  V30 23 C -2.995186 0.713724 -1.361550 0
M  V30 24 C -1.203675 -0.687506 -0.287892 0 CFG=1
M  V30 25 C -0.358440 -1.071494 -1.463268 0
M  V30 26 C 1.023805 -1.423605 -1.018854 0
M  V30 27 C 1.701102 -0.391398 -0.192288 0 CFG=2
M  V30 28 C 2.260116 0.759018 -0.927983 0
M  V30 29 H 1.576313 -3.970714 3.996205 0
M  V30 30 H 0.571230 -3.820675 2.552002 0
M  V30 31 H 1.899174 -4.975727 2.470688 0
M  V30 32 H 5.865045 -1.321291 -0.674217 0
M  V30 33 H 4.699274 -0.342201 -1.557470 0
M  V30 34 H 5.321465 0.187938 0.041561 0
M  V30 35 H 3.688769 0.823252 1.511393 0
M  V30 36 H 2.981383 -0.175182 2.797277 0
M  V30 37 H 1.241486 1.257596 2.662083 0
M  V30 38 H 1.753162 1.860224 0.999951 0
M  V30 39 H 0.475254 -0.888378 1.476492 0
M  V30 40 H -0.343266 1.209738 -0.526662 0
M  V30 41 H -0.766601 1.473728 2.197512 0
M  V30 42 H -1.704720 2.276532 0.946909 0
M  V30 43 H -3.347247 1.278867 2.136452 0
M  V30 44 H -1.675886 0.438644 3.688034 0
M  V30 45 H -3.182717 -0.499693 3.569652 0
M  V30 46 H -1.648391 -1.174020 2.801733 0
M  V30 47 H -4.835076 -0.682076 2.150441 0
M  V30 48 H -5.215059 -1.433836 -1.881477 0
M  V30 49 H -4.795668 -3.073084 -1.328502 0
M  V30 50 H -2.908999 -1.620612 -2.343928 0
M  V30 51 H -2.593049 -2.641866 -0.924301 0
M  V30 52 H -2.279235 1.537712 -1.263056 0
M  V30 53 H -3.980588 1.130532 -1.000483 0
M  V30 54 H -3.058669 0.497024 -2.455424 0
M  V30 55 H -1.109299 -1.500081 0.474029 0
M  V30 56 H -0.244439 -0.202642 -2.175992 0
M  V30 57 H -0.746060 -1.914217 -2.048507 0
M  V30 58 H 1.634527 -1.548706 -1.959106 0
M  V30 59 H 1.073516 -2.387392 -0.486127 0
M  V30 60 H 2.469435 0.430610 -1.976876 0
M  V30 61 H 1.588472 1.633558 -1.020649 0
M  V30 62 H 3.180618 1.146529 -0.447201 0
M  V30 END ATOM
M  V30 BEGIN BOND
M  V30 1 1 1 2
M  V30 2 2 2 3
M  V30 3 1 2 4
M  V30 4 1 5 4 CFG=1
M  V30 5 1 5 6
M  V30 6 1 6 7
M  V30 7 2 6 8
M  V30 8 1 5 9
M  V30 9 1 9 10
M  V30 10 1 10 11
M  V30 11 1 11 12
M  V30 12 1 12 13
M  V30 13 1 13 14
M  V30 14 1 14 15
M  V30 15 1 14 16
M  V30 16 2 16 17
M  V30 17 1 17 18
M  V30 18 2 18 19
M  V30 19 1 18 20
M  V30 20 1 20 21
M  V30 21 1 21 22
M  V30 22 1 22 23 CFG=3
M  V30 23 1 22 24
M  V30 24 1 24 25
M  V30 25 1 25 26
M  V30 26 1 26 27
M  V30 27 1 27 28 CFG=3
M  V30 28 1 27 5
M  V30 29 1 27 11
M  V30 30 1 24 12
M  V30 31 1 22 16
M  V30 32 1 1 29
M  V30 33 1 1 30
M  V30 34 1 1 31
M  V30 35 1 7 32
M  V30 36 1 7 33
M  V30 37 1 7 34
M  V30 38 1 9 35
M  V30 39 1 9 36
M  V30 40 1 10 37
M  V30 41 1 10 38
M  V30 42 1 11 39 CFG=1
M  V30 43 1 12 40 CFG=3
M  V30 44 1 13 41
M  V30 45 1 13 42
M  V30 46 1 14 43 CFG=1
M  V30 47 1 15 44
M  V30 48 1 15 45
M  V30 49 1 15 46
M  V30 50 1 17 47
M  V30 51 1 20 48
M  V30 52 1 20 49
M  V30 53 1 21 50
M  V30 54 1 21 51
M  V30 55 1 23 52
M  V30 56 1 23 53
M  V30 57 1 23 54
M  V30 58 1 24 55 CFG=1
M  V30 59 1 25 56
M  V30 60 1 25 57
M  V30 61 1 26 58
M  V30 62 1 26 59
M  V30 63 1 28 60
M  V30 64 1 28 61
M  V30 65 1 28 62
M  V30 END BOND
M  V30 END CTAB
M  END
>  <Dataset>  (562) 
OralDrugs

>  <Ligand_Instance>  (562) 
nan

>  <PDB_ID>  (562) 
nan

>  <Standardized_SMILES>  (562) 
CC(=O)O[C@]1(C(C)=O)CC[C@H]2[C@@H]3C[C@H](C)C4=CC(=O)CC[C@]4(C)[C@H]3CC[C@@]21C

>  <Name>  (562) 
Medroxyprogesterone Acetate

>  <Pocket>  (562) 
nan

>  <ATP_Site>  (562) 
nan

>  <Peripheral>  (562) 
nan

>  <Num_H_Atoms_ProtBoundConf>  (562) 
nan

>  <Num_Resolved_Atoms>  (562) 
nan

>  <Num_Not_Resolved_Atoms>  (562) 
nan

$$$$
CHEMBL686
     RDKit          3D

  0  0  0  0  0  0  0  0  0  0999 V3000
M  V30 BEGIN CTAB
M  V30 COUNTS 33 34 0 0 0
M  V30 BEGIN ATOM
M  V30 1 C -3.659362 -1.960024 2.608622 0
M  V30 2 C -2.176888 -1.798431 2.391067 0
M  V30 3 C -1.265791 -2.171345 3.374897 0
M  V30 4 C 0.087063 -2.016242 3.158522 0
M  V30 5 C 0.429526 -1.483610 1.936344 0
M  V30 6 C -0.447768 -1.105417 0.943778 0
M  V30 7 N -0.084083 -0.556583 -0.313112 0
M  V30 8 C 1.123498 -0.195547 -0.951410 0
M  V30 9 C 1.524459 -0.870565 -2.112124 0
M  V30 10 C 2.660112 -0.652318 -2.864800 0
M  V30 11 C 3.454971 0.350877 -2.379599 0
M  V30 12 C 3.135758 1.062704 -1.249372 0
M  V30 13 C 1.985637 0.794789 -0.544306 0
M  V30 14 C 1.678711 1.606554 0.614837 0
M  V30 15 O 0.701822 1.617911 1.395234 0
M  V30 16 O 2.536472 2.594769 1.058792 0
M  V30 17 C -1.780722 -1.271872 1.189197 0
M  V30 18 C -2.791613 -0.888684 0.169105 0
M  V30 19 H -4.213863 -1.020129 2.377023 0
M  V30 20 H -3.788039 -2.107799 3.699916 0
M  V30 21 H -4.089754 -2.775714 2.007896 0
M  V30 22 H -1.630766 -2.584693 4.312327 0
M  V30 23 H 0.825665 -2.290435 3.889557 0
M  V30 24 H 1.491730 -1.350807 1.740406 0
M  V30 25 H -0.803432 -0.316757 -1.026231 0
M  V30 26 H 0.845740 -1.665688 -2.453306 0
M  V30 27 H 2.842221 -1.243962 -3.731178 0
M  V30 28 H 4.378785 0.585505 -2.922678 0
M  V30 29 H 3.818905 1.856231 -0.914069 0
M  V30 30 H 2.245966 3.478156 1.455810 0
M  V30 31 H -3.789357 -1.334914 0.407668 0
M  V30 32 H -2.820915 0.174459 -0.067450 0
M  V30 33 H -2.483707 -1.442489 -0.766253 0
M  V30 END ATOM
M  V30 BEGIN BOND
M  V30 1 1 1 2
M  V30 2 2 2 3
M  V30 3 1 3 4
M  V30 4 2 4 5
M  V30 5 1 5 6
M  V30 6 1 6 7
M  V30 7 1 7 8
M  V30 8 2 8 9
M  V30 9 1 9 10
M  V30 10 2 10 11
M  V30 11 1 11 12
M  V30 12 2 12 13
M  V30 13 1 13 14
M  V30 14 2 14 15
M  V30 15 1 14 16
M  V30 16 2 6 17
M  V30 17 1 17 18
M  V30 18 1 17 2
M  V30 19 1 13 8
M  V30 20 1 1 19
M  V30 21 1 1 20
M  V30 22 1 1 21
M  V30 23 1 3 22
M  V30 24 1 4 23
M  V30 25 1 5 24
M  V30 26 1 7 25
M  V30 27 1 9 26
M  V30 28 1 10 27
M  V30 29 1 11 28
M  V30 30 1 12 29
M  V30 31 1 16 30
M  V30 32 1 18 31
M  V30 33 1 18 32
M  V30 34 1 18 33
M  V30 END BOND
M  V30 END CTAB
M  END
>  <Dataset>  (563) 
OralDrugs

>  <Ligand_Instance>  (563) 
nan

>  <PDB_ID>  (563) 
nan

>  <Standardized_SMILES>  (563) 
Cc1cccc(Nc2ccccc2C(=O)O)c1C

>  <Name>  (563) 
Mefenamic Acid

>  <Pocket>  (563) 
nan

>  <ATP_Site>  (563) 
nan

>  <Peripheral>  (563) 
nan

>  <Num_H_Atoms_ProtBoundConf>  (563) 
nan

>  <Num_Resolved_Atoms>  (563) 
nan

>  <Num_Not_Resolved_Atoms>  (563) 
nan

$$$$
CHEMBL416956
     RDKit          3D

  0  0  0  0  0  0  0  0  0  0999 V3000
M  V30 BEGIN CTAB
M  V30 COUNTS 42 44 0 0 0
M  V30 BEGIN ATOM
M  V30 1 O 0.530712 -3.120289 0.289037 0
M  V30 2 C -0.285371 -2.052325 0.658766 0
M  V30 3 C 0.145173 -0.857587 -0.115868 0
M  V30 4 C 1.447848 -0.814668 -0.622773 0
M  V30 5 C 2.009387 0.205809 -1.356532 0
M  V30 6 C 3.415693 0.094705 -1.822800 0
M  V30 7 F 3.828351 -1.196539 -1.695835 0
M  V30 8 F 4.165185 0.861863 -0.922643 0
M  V30 9 F 3.591531 0.572491 -3.103942 0
M  V30 10 N 1.204824 1.256912 -1.597600 0
M  V30 11 C -0.062768 1.294457 -1.145128 0
M  V30 12 C -0.871220 2.386161 -1.405626 0
M  V30 13 C -0.295126 3.519165 -2.202667 0
M  V30 14 F 0.798722 4.086267 -1.610243 0
M  V30 15 F -1.248250 4.516275 -2.319525 0
M  V30 16 F 0.071838 3.091172 -3.462860 0
M  V30 17 C -2.175462 2.403428 -0.929088 0
M  V30 18 C -2.700228 1.352233 -0.193221 0
M  V30 19 C -1.907636 0.247672 0.079791 0
M  V30 20 C -0.624804 0.260536 -0.404272 0
M  V30 21 C 0.050365 -1.765168 2.128761 0
M  V30 22 C -0.435302 -2.822993 3.046431 0
M  V30 23 C 0.454112 -3.227490 4.163957 0
M  V30 24 C 1.648605 -2.315869 4.346906 0
M  V30 25 C 2.281616 -2.262708 2.951884 0
M  V30 26 N 1.433835 -1.437958 2.168210 0
M  V30 27 H 0.163458 -4.002140 0.544752 0
M  V30 28 H -1.316401 -2.356339 0.500679 0
M  V30 29 H 2.084328 -1.680604 -0.414379 0
M  V30 30 H -2.772388 3.297579 -1.166709 0
M  V30 31 H -3.723634 1.445043 0.139949 0
M  V30 32 H -2.303092 -0.572383 0.648682 0
M  V30 33 H -0.523425 -0.840334 2.361159 0
M  V30 34 H -1.447097 -2.597478 3.486455 0
M  V30 35 H -0.605847 -3.749476 2.426434 0
M  V30 36 H 0.900443 -4.256453 4.033490 0
M  V30 37 H -0.069975 -3.266099 5.141844 0
M  V30 38 H 1.306657 -1.291141 4.569997 0
M  V30 39 H 2.324823 -2.763053 5.077943 0
M  V30 40 H 3.249220 -1.726812 3.073093 0
M  V30 41 H 2.435649 -3.259436 2.536042 0
M  V30 42 H 1.690538 -0.448972 2.149161 0
M  V30 END ATOM
M  V30 BEGIN BOND
M  V30 1 1 1 2
M  V30 2 1 2 3
M  V30 3 2 3 4
M  V30 4 1 4 5
M  V30 5 1 5 6
M  V30 6 1 6 7
M  V30 7 1 6 8
M  V30 8 1 6 9
M  V30 9 2 5 10
M  V30 10 1 10 11
M  V30 11 2 11 12
M  V30 12 1 12 13
M  V30 13 1 13 14
M  V30 14 1 13 15
M  V30 15 1 13 16
M  V30 16 1 12 17
M  V30 17 2 17 18
M  V30 18 1 18 19
M  V30 19 2 19 20
M  V30 20 1 2 21
M  V30 21 1 21 22
M  V30 22 1 22 23
M  V30 23 1 23 24
M  V30 24 1 24 25
M  V30 25 1 25 26
M  V30 26 1 20 3
M  V30 27 1 26 21
M  V30 28 1 20 11
M  V30 29 1 1 27
M  V30 30 1 2 28
M  V30 31 1 4 29
M  V30 32 1 17 30
M  V30 33 1 18 31
M  V30 34 1 19 32
M  V30 35 1 21 33
M  V30 36 1 22 34
M  V30 37 1 22 35
M  V30 38 1 23 36
M  V30 39 1 23 37
M  V30 40 1 24 38
M  V30 41 1 24 39
M  V30 42 1 25 40
M  V30 43 1 25 41
M  V30 44 1 26 42
M  V30 END BOND
M  V30 END CTAB
M  END
>  <Dataset>  (564) 
OralDrugs

>  <Ligand_Instance>  (564) 
nan

>  <PDB_ID>  (564) 
nan

>  <Standardized_SMILES>  (564) 
OC(c1cc(C(F)(F)F)nc2c(C(F)(F)F)cccc12)C1CCCCN1

>  <Name>  (564) 
Mefloquine

>  <Pocket>  (564) 
nan

>  <ATP_Site>  (564) 
nan

>  <Peripheral>  (564) 
nan

>  <Num_H_Atoms_ProtBoundConf>  (564) 
nan

>  <Num_Resolved_Atoms>  (564) 
nan

>  <Num_Not_Resolved_Atoms>  (564) 
nan

$$$$
CHEMBL1201139
     RDKit          3D

  0  0  0  0  0  0  0  0  0  0999 V3000
M  V30 BEGIN CTAB
M  V30 COUNTS 60 63 0 0 0
M  V30 BEGIN ATOM
M  V30 1 C 2.797789 -4.617655 3.161069 0
M  V30 2 C 2.484608 -3.310230 2.561568 0
M  V30 3 O 1.831765 -2.461568 3.157302 0
M  V30 4 O 2.850442 -2.893919 1.350778 0
M  V30 5 C 2.706006 -1.802652 0.567453 0 CFG=2
M  V30 6 C 3.525398 -2.175003 -0.661462 0
M  V30 7 C 4.367457 -2.813617 -1.673891 0
M  V30 8 O 3.469148 -3.004982 0.260289 0
M  V30 9 C 3.273460 -0.505084 1.046357 0
M  V30 10 C 2.211338 0.560096 0.875538 0
M  V30 11 C 0.970171 -0.244845 0.827254 0 CFG=1
M  V30 12 C -0.183403 0.409772 0.103026 0 CFG=2
M  V30 13 C -0.597246 1.579012 0.958855 0
M  V30 14 C -1.861176 1.881673 1.301605 0
M  V30 15 C -2.160586 3.063167 2.153889 0
M  V30 16 C -2.929903 1.006146 0.805814 0
M  V30 17 C -4.130695 1.106699 1.357345 0
M  V30 18 C -5.214157 0.249720 0.886099 0
M  V30 19 O -6.391071 0.601241 1.101937 0
M  V30 20 C -4.808140 -0.983916 0.180425 0
M  V30 21 C -3.662841 -0.789370 -0.761144 0
M  V30 22 C -2.557134 0.054661 -0.305584 0 CFG=1
M  V30 23 C -2.154472 0.983401 -1.454571 0
M  V30 24 C -1.312204 -0.602838 0.171922 0 CFG=1
M  V30 25 C -1.010366 -1.923096 -0.433222 0
M  V30 26 C 0.301922 -2.457558 0.074536 0
M  V30 27 C 1.376168 -1.446183 0.005339 0 CFG=2
M  V30 28 C 1.494440 -1.027219 -1.455909 0
M  V30 29 H 3.326884 -4.418969 4.126453 0
M  V30 30 H 1.858693 -5.174853 3.314648 0
M  V30 31 H 3.427601 -5.231458 2.490130 0
M  V30 32 H 4.450908 -2.171850 -2.597272 0
M  V30 33 H 3.899890 -3.743495 -2.050270 0
M  V30 34 H 5.375684 -3.092020 -1.298159 0
M  V30 35 H 4.157176 -0.143086 0.468468 0
M  V30 36 H 3.599924 -0.486295 2.089240 0
M  V30 37 H 2.175859 1.258758 1.733001 0
M  V30 38 H 2.392612 1.185032 -0.019730 0
M  V30 39 H 0.592801 -0.476310 1.815492 0
M  V30 40 H 0.090368 0.722758 -0.900925 0
M  V30 41 H 0.168479 2.247812 1.343378 0
M  V30 42 H -1.260783 3.705165 2.200096 0
M  V30 43 H -2.330918 2.632127 3.183517 0
M  V30 44 H -3.085146 3.571645 1.876752 0
M  V30 45 H -4.267058 1.837649 2.155648 0
M  V30 46 H -4.581853 -1.748565 0.952252 0
M  V30 47 H -5.722001 -1.333311 -0.344404 0
M  V30 48 H -4.131769 -0.378434 -1.702323 0
M  V30 49 H -3.301162 -1.787298 -1.082529 0
M  V30 50 H -1.841201 1.973617 -1.130687 0
M  V30 51 H -3.091007 1.167751 -2.060429 0
M  V30 52 H -1.479149 0.477745 -2.180620 0
M  V30 53 H -1.426050 -0.803607 1.279207 0
M  V30 54 H -1.789483 -2.629911 -0.012421 0
M  V30 55 H -1.157946 -2.008167 -1.521448 0
M  V30 56 H 0.533023 -3.371294 -0.537690 0
M  V30 57 H 0.119685 -2.766207 1.118183 0
M  V30 58 H 1.992272 -0.054475 -1.591343 0
M  V30 59 H 0.515740 -0.958283 -1.967183 0
M  V30 60 H 2.057883 -1.782989 -2.046783 0
M  V30 END ATOM
M  V30 BEGIN BOND
M  V30 1 1 1 2
M  V30 2 2 2 3
M  V30 3 1 2 4
M  V30 4 1 5 4 CFG=1
M  V30 5 1 5 6
M  V30 6 1 6 7
M  V30 7 2 6 8
M  V30 8 1 5 9
M  V30 9 1 9 10
M  V30 10 1 10 11
M  V30 11 1 11 12
M  V30 12 1 12 13
M  V30 13 2 13 14
M  V30 14 1 14 15
M  V30 15 1 14 16
M  V30 16 2 16 17
M  V30 17 1 17 18
M  V30 18 2 18 19
M  V30 19 1 18 20
M  V30 20 1 20 21
M  V30 21 1 21 22
M  V30 22 1 22 23 CFG=3
M  V30 23 1 22 24
M  V30 24 1 24 25
M  V30 25 1 25 26
M  V30 26 1 26 27
M  V30 27 1 27 28 CFG=3
M  V30 28 1 27 5
M  V30 29 1 27 11
M  V30 30 1 24 12
M  V30 31 1 22 16
M  V30 32 1 1 29
M  V30 33 1 1 30
M  V30 34 1 1 31
M  V30 35 1 7 32
M  V30 36 1 7 33
M  V30 37 1 7 34
M  V30 38 1 9 35
M  V30 39 1 9 36
M  V30 40 1 10 37
M  V30 41 1 10 38
M  V30 42 1 11 39 CFG=1
M  V30 43 1 12 40 CFG=3
M  V30 44 1 13 41
M  V30 45 1 15 42
M  V30 46 1 15 43
M  V30 47 1 15 44
M  V30 48 1 17 45
M  V30 49 1 20 46
M  V30 50 1 20 47
M  V30 51 1 21 48
M  V30 52 1 21 49
M  V30 53 1 23 50
M  V30 54 1 23 51
M  V30 55 1 23 52
M  V30 56 1 24 53 CFG=1
M  V30 57 1 25 54
M  V30 58 1 25 55
M  V30 59 1 26 56
M  V30 60 1 26 57
M  V30 61 1 28 58
M  V30 62 1 28 59
M  V30 63 1 28 60
M  V30 END BOND
M  V30 END CTAB
M  END
>  <Dataset>  (565) 
OralDrugs

>  <Ligand_Instance>  (565) 
nan

>  <PDB_ID>  (565) 
nan

>  <Standardized_SMILES>  (565) 
CC(=O)O[C@]1(C(C)=O)CC[C@H]2[C@@H]3C=C(C)C4=CC(=O)CC[C@]4(C)[C@H]3CC[C@@]21C

>  <Name>  (565) 
Megestrol Acetate

>  <Pocket>  (565) 
nan

>  <ATP_Site>  (565) 
nan

>  <Peripheral>  (565) 
nan

>  <Num_H_Atoms_ProtBoundConf>  (565) 
nan

>  <Num_Resolved_Atoms>  (565) 
nan

>  <Num_Not_Resolved_Atoms>  (565) 
nan

$$$$
CHEMBL45
     RDKit          3D

  0  0  0  0  0  0  0  0  0  0999 V3000
M  V30 BEGIN CTAB
M  V30 COUNTS 33 34 0 0 0
M  V30 BEGIN ATOM
M  V30 1 C -2.696034 -1.881002 2.671332 0
M  V30 2 O -1.452990 -1.680261 3.321567 0
M  V30 3 C -0.276591 -1.504432 2.623289 0
M  V30 4 C 0.845344 -1.321816 3.418758 0
M  V30 5 C 2.091963 -1.134137 2.837845 0
M  V30 6 C 2.278681 -1.119447 1.473024 0
M  V30 7 N 3.285174 -0.977906 0.605942 0
M  V30 8 C 2.818073 -1.067095 -0.661173 0
M  V30 9 C 1.431337 -1.278315 -0.679997 0
M  V30 10 C 0.608529 -1.402521 -1.879349 0
M  V30 11 C -0.058489 -0.179100 -2.362507 0
M  V30 12 N -0.949981 0.552673 -1.563803 0
M  V30 13 C -0.971320 1.334665 -0.398027 0
M  V30 14 C -2.068650 2.028415 0.312627 0
M  V30 15 O 0.071893 1.555154 0.246034 0
M  V30 16 C 1.170444 -1.299294 0.697901 0
M  V30 17 C -0.097940 -1.490643 1.257432 0
M  V30 18 H -2.570295 -2.652403 1.882527 0
M  V30 19 H -2.968919 -0.941765 2.125939 0
M  V30 20 H -3.478992 -2.196014 3.384514 0
M  V30 21 H 0.830244 -1.313574 4.504321 0
M  V30 22 H 2.975267 -0.990938 3.467166 0
M  V30 23 H 4.281808 -0.822434 0.878957 0
M  V30 24 H 3.477636 -0.978583 -1.517734 0
M  V30 25 H -0.112509 -2.268281 -1.763781 0
M  V30 26 H 1.305192 -1.745784 -2.702954 0
M  V30 27 H -0.592193 -0.353765 -3.351435 0
M  V30 28 H 0.812820 0.482476 -2.735664 0
M  V30 29 H -1.982802 0.580622 -1.861936 0
M  V30 30 H -2.123698 1.766285 1.388506 0
M  V30 31 H -1.888015 3.130441 0.260365 0
M  V30 32 H -3.048178 1.823923 -0.130951 0
M  V30 33 H -1.005830 -1.637217 0.686374 0
M  V30 END ATOM
M  V30 BEGIN BOND
M  V30 1 1 1 2
M  V30 2 1 2 3
M  V30 3 2 3 4
M  V30 4 1 4 5
M  V30 5 2 5 6
M  V30 6 1 6 7
M  V30 7 1 7 8
M  V30 8 2 8 9
M  V30 9 1 9 10
M  V30 10 1 10 11
M  V30 11 1 11 12
M  V30 12 1 12 13
M  V30 13 1 13 14
M  V30 14 2 13 15
M  V30 15 1 9 16
M  V30 16 2 16 17
M  V30 17 1 17 3
M  V30 18 1 16 6
M  V30 19 1 1 18
M  V30 20 1 1 19
M  V30 21 1 1 20
M  V30 22 1 4 21
M  V30 23 1 5 22
M  V30 24 1 7 23
M  V30 25 1 8 24
M  V30 26 1 10 25
M  V30 27 1 10 26
M  V30 28 1 11 27
M  V30 29 1 11 28
M  V30 30 1 12 29
M  V30 31 1 14 30
M  V30 32 1 14 31
M  V30 33 1 14 32
M  V30 34 1 17 33
M  V30 END BOND
M  V30 END CTAB
M  END
>  <Dataset>  (566) 
OralDrugs

>  <Ligand_Instance>  (566) 
nan

>  <PDB_ID>  (566) 
nan

>  <Standardized_SMILES>  (566) 
COc1ccc2[nH]cc(CCNC(C)=O)c2c1

>  <Name>  (566) 
Melatonin

>  <Pocket>  (566) 
nan

>  <ATP_Site>  (566) 
nan

>  <Peripheral>  (566) 
nan

>  <Num_H_Atoms_ProtBoundConf>  (566) 
nan

>  <Num_Resolved_Atoms>  (566) 
nan

>  <Num_Not_Resolved_Atoms>  (566) 
nan

$$$$
CHEMBL599
     RDKit          3D

  0  0  0  0  0  0  0  0  0  0999 V3000
M  V30 BEGIN CTAB
M  V30 COUNTS 36 38 0 0 0
M  V30 BEGIN ATOM
M  V30 1 C 4.048324 -5.704726 2.967371 0
M  V30 2 C 3.139285 -5.011136 1.957688 0
M  V30 3 C 3.003950 -4.825920 0.610401 0
M  V30 4 N 1.963926 -4.088683 0.286139 0
M  V30 5 C 1.170970 -3.585290 0.896120 0
M  V30 6 N -0.011082 -2.748652 0.523790 0
M  V30 7 C 0.302865 -1.399119 0.461763 0
M  V30 8 O 1.551374 -1.433309 0.755800 0
M  V30 9 C -0.429998 -0.187506 0.173469 0
M  V30 10 C 0.341724 0.883660 0.198364 0
M  V30 11 O 1.718860 0.825646 0.488784 0
M  V30 12 C -0.154307 2.212983 -0.084610 0
M  V30 13 C 0.666567 3.323431 0.029692 0
M  V30 14 C 0.205094 4.600755 -0.173382 0
M  V30 15 C -1.094319 4.858260 -0.501499 0
M  V30 16 C -1.965508 3.769177 -0.630678 0
M  V30 17 C -1.442559 2.535106 -0.417157 0
M  V30 18 S -2.573375 1.227717 -0.688694 0
M  V30 19 O -3.910279 1.494714 -0.055480 0
M  V30 20 O -2.675626 1.021664 -2.177097 0
M  V30 21 N -1.831789 -0.173097 -0.006422 0
M  V30 22 C -2.728566 -1.229965 0.373878 0
M  V30 23 S 1.726406 -4.086814 2.644518 0
M  V30 24 H 3.550564 -6.593303 3.398219 0
M  V30 25 H 5.020999 -5.881521 2.509093 0
M  V30 26 H 4.190754 -4.984880 3.826099 0
M  V30 27 H 3.791807 -5.329992 0.061147 0
M  V30 28 H -0.972639 -2.984426 0.301026 0
M  V30 29 H 2.406233 1.211608 -0.122722 0
M  V30 30 H 1.728262 3.215596 0.290200 0
M  V30 31 H 0.908525 5.440224 -0.067094 0
M  V30 32 H -1.399255 5.883572 -0.647934 0
M  V30 33 H -2.993633 3.976060 -0.890583 0
M  V30 34 H -3.737961 -0.742248 0.579944 0
M  V30 35 H -2.426212 -1.648755 1.358405 0
M  V30 36 H -2.875713 -1.967702 -0.433571 0
M  V30 END ATOM
M  V30 BEGIN BOND
M  V30 1 1 1 2
M  V30 2 2 2 3
M  V30 3 1 3 4
M  V30 4 2 4 5
M  V30 5 1 5 6
M  V30 6 1 6 7
M  V30 7 2 7 8
M  V30 8 1 7 9
M  V30 9 2 9 10
M  V30 10 1 10 11
M  V30 11 1 10 12
M  V30 12 2 12 13
M  V30 13 1 13 14
M  V30 14 2 14 15
M  V30 15 1 15 16
M  V30 16 2 16 17
M  V30 17 1 17 18
M  V30 18 2 18 19
M  V30 19 2 18 20
M  V30 20 1 18 21
M  V30 21 1 21 22
M  V30 22 1 5 23
M  V30 23 1 23 2
M  V30 24 1 21 9
M  V30 25 1 17 12
M  V30 26 1 1 24
M  V30 27 1 1 25
M  V30 28 1 1 26
M  V30 29 1 3 27
M  V30 30 1 6 28
M  V30 31 1 11 29
M  V30 32 1 13 30
M  V30 33 1 14 31
M  V30 34 1 15 32
M  V30 35 1 16 33
M  V30 36 1 22 34
M  V30 37 1 22 35
M  V30 38 1 22 36
M  V30 END BOND
M  V30 END CTAB
M  END
>  <Dataset>  (567) 
OralDrugs

>  <Ligand_Instance>  (567) 
nan

>  <PDB_ID>  (567) 
nan

>  <Standardized_SMILES>  (567) 
Cc1cnc(NC(=O)C2=C(O)c3ccccc3S(=O)(=O)N2C)s1

>  <Name>  (567) 
Meloxicam

>  <Pocket>  (567) 
nan

>  <ATP_Site>  (567) 
nan

>  <Peripheral>  (567) 
nan

>  <Num_H_Atoms_ProtBoundConf>  (567) 
nan

>  <Num_Resolved_Atoms>  (567) 
nan

>  <Num_Not_Resolved_Atoms>  (567) 
nan

$$$$
CHEMBL852
     RDKit          3D

  0  0  0  0  0  0  0  0  0  0999 V3000
M  V30 BEGIN CTAB
M  V30 COUNTS 37 37 0 0 0
M  V30 BEGIN ATOM
M  V30 1 N -1.853957 -2.393124 3.576628 0
M  V30 2 C -0.887906 -3.430037 3.339098 0 CFG=1
M  V30 3 C -0.805692 -3.770650 1.847306 0
M  V30 4 C -0.402693 -2.541481 1.116287 0
M  V30 5 C -1.352478 -1.665145 0.640319 0
M  V30 6 C -0.959314 -0.541652 -0.029236 0
M  V30 7 C 0.329294 -0.180473 -0.287441 0
M  V30 8 N 0.727253 1.000243 -0.996736 0
M  V30 9 C 2.074718 1.392115 -1.252956 0
M  V30 10 C 2.401264 1.266526 -2.712398 0
M  V30 11 Cl 4.117706 1.752232 -2.981891 0
M  V30 12 C -0.184783 1.942033 -1.550671 0
M  V30 13 C -0.186838 3.297924 -0.885213 0
M  V30 14 Cl -0.610035 3.134532 0.811208 0
M  V30 15 C 1.246847 -1.080483 0.203476 0
M  V30 16 C 0.928082 -2.231413 0.886390 0
M  V30 17 C 0.415824 -2.926338 3.831689 0
M  V30 18 O 0.503717 -1.766334 4.344407 0
M  V30 19 O 1.759011 -3.147377 4.023995 0
M  V30 20 H -1.505403 -1.675713 4.280013 0
M  V30 21 H -2.764362 -2.742505 3.917665 0
M  V30 22 H -1.216575 -4.327096 3.912708 0
M  V30 23 H -1.767912 -4.108170 1.466790 0
M  V30 24 H -0.013681 -4.518303 1.692733 0
M  V30 25 H -2.386085 -1.925061 0.830754 0
M  V30 26 H -1.791448 0.062258 -0.348283 0
M  V30 27 H 2.302413 2.425439 -0.890347 0
M  V30 28 H 2.760073 0.730629 -0.689458 0
M  V30 29 H 2.275255 0.228939 -3.058295 0
M  V30 30 H 1.792131 1.935171 -3.333352 0
M  V30 31 H -1.229040 1.558954 -1.445142 0
M  V30 32 H -0.040855 2.092144 -2.652903 0
M  V30 33 H -0.976360 3.884971 -1.424402 0
M  V30 34 H 0.797036 3.757150 -0.998188 0
M  V30 35 H 2.303668 -0.982534 0.105214 0
M  V30 36 H 1.633437 -2.946950 1.277576 0
M  V30 37 H 2.165337 -3.516845 4.875629 0
M  V30 END ATOM
M  V30 BEGIN BOND
M  V30 1 1 1 2
M  V30 2 1 2 3
M  V30 3 1 3 4
M  V30 4 2 4 5
M  V30 5 1 5 6
M  V30 6 2 6 7
M  V30 7 1 7 8
M  V30 8 1 8 9
M  V30 9 1 9 10
M  V30 10 1 10 11
M  V30 11 1 8 12
M  V30 12 1 12 13
M  V30 13 1 13 14
M  V30 14 1 7 15
M  V30 15 2 15 16
M  V30 16 1 2 17
M  V30 17 2 17 18
M  V30 18 1 17 19
M  V30 19 1 16 4
M  V30 20 1 1 20
M  V30 21 1 1 21
M  V30 22 1 2 22 CFG=1
M  V30 23 1 3 23
M  V30 24 1 3 24
M  V30 25 1 5 25
M  V30 26 1 6 26
M  V30 27 1 9 27
M  V30 28 1 9 28
M  V30 29 1 10 29
M  V30 30 1 10 30
M  V30 31 1 12 31
M  V30 32 1 12 32
M  V30 33 1 13 33
M  V30 34 1 13 34
M  V30 35 1 15 35
M  V30 36 1 16 36
M  V30 37 1 19 37
M  V30 END BOND
M  V30 END CTAB
M  END
>  <Dataset>  (568) 
OralDrugs

>  <Ligand_Instance>  (568) 
nan

>  <PDB_ID>  (568) 
nan

>  <Standardized_SMILES>  (568) 
N[C@@H](Cc1ccc(N(CCCl)CCCl)cc1)C(=O)O

>  <Name>  (568) 
Melphalan

>  <Pocket>  (568) 
nan

>  <ATP_Site>  (568) 
nan

>  <Peripheral>  (568) 
nan

>  <Num_H_Atoms_ProtBoundConf>  (568) 
nan

>  <Num_Resolved_Atoms>  (568) 
nan

>  <Num_Not_Resolved_Atoms>  (568) 
nan

$$$$
CHEMBL807
     RDKit          3D

  0  0  0  0  0  0  0  0  0  0999 V3000
M  V30 BEGIN CTAB
M  V30 COUNTS 34 36 0 0 0
M  V30 BEGIN ATOM
M  V30 1 C -0.384057 0.828777 3.118602 0
M  V30 2 C -0.325414 0.158034 1.759058 0
M  V30 3 C -1.662424 -0.486970 1.452754 0
M  V30 4 C -1.611039 -1.152981 0.106922 0
M  V30 5 C -0.548934 -2.208119 -0.002847 0
M  V30 6 C 0.761290 -1.659818 0.473253 0
M  V30 7 C 1.797707 -2.757061 0.572578 0
M  V30 8 C 0.676740 -0.975336 1.807565 0
M  V30 9 C 1.190713 -0.614837 -0.541670 0
M  V30 10 C 0.139387 0.456488 -0.616563 0
M  V30 11 N 0.508416 1.346677 -1.697422 0
M  V30 12 C -1.232684 -0.072462 -0.901262 0
M  V30 13 C 0.055744 1.174390 0.718557 0
M  V30 14 H -0.416895 1.931564 2.979128 0
M  V30 15 H -1.300152 0.532433 3.665112 0
M  V30 16 H 0.513539 0.523033 3.706538 0
M  V30 17 H -2.467926 0.267247 1.406391 0
M  V30 18 H -1.884721 -1.216257 2.249116 0
M  V30 19 H -2.595916 -1.571733 -0.142078 0
M  V30 20 H -0.826481 -3.177175 0.438367 0
M  V30 21 H -0.434484 -2.406703 -1.103555 0
M  V30 22 H 1.364685 -3.756039 0.312666 0
M  V30 23 H 2.621347 -2.528194 -0.137214 0
M  V30 24 H 2.222865 -2.862400 1.583669 0
M  V30 25 H 1.666636 -0.589196 2.063274 0
M  V30 26 H 0.356420 -1.690394 2.588121 0
M  V30 27 H 1.286255 -1.074901 -1.541343 0
M  V30 28 H 2.140271 -0.140601 -0.270075 0
M  V30 29 H -0.102308 1.231523 -2.536470 0
M  V30 30 H 1.491150 1.184031 -2.032774 0
M  V30 31 H -1.955421 0.760983 -0.714368 0
M  V30 32 H -1.360046 -0.491572 -1.910367 0
M  V30 33 H -0.735606 1.932855 0.646875 0
M  V30 34 H 1.049735 1.561229 0.957705 0
M  V30 END ATOM
M  V30 BEGIN BOND
M  V30 1 1 1 2
M  V30 2 1 2 3
M  V30 3 1 3 4
M  V30 4 1 4 5
M  V30 5 1 5 6
M  V30 6 1 6 7
M  V30 7 1 6 8
M  V30 8 1 6 9
M  V30 9 1 9 10
M  V30 10 1 10 11
M  V30 11 1 10 12
M  V30 12 1 10 13
M  V30 13 1 8 2
M  V30 14 1 13 2
M  V30 15 1 12 4
M  V30 16 1 1 14
M  V30 17 1 1 15
M  V30 18 1 1 16
M  V30 19 1 3 17
M  V30 20 1 3 18
M  V30 21 1 4 19
M  V30 22 1 5 20
M  V30 23 1 5 21
M  V30 24 1 7 22
M  V30 25 1 7 23
M  V30 26 1 7 24
M  V30 27 1 8 25
M  V30 28 1 8 26
M  V30 29 1 9 27
M  V30 30 1 9 28
M  V30 31 1 11 29
M  V30 32 1 11 30
M  V30 33 1 12 31
M  V30 34 1 12 32
M  V30 35 1 13 33
M  V30 36 1 13 34
M  V30 END BOND
M  V30 END CTAB
M  END
>  <Dataset>  (569) 
OralDrugs

>  <Ligand_Instance>  (569) 
nan

>  <PDB_ID>  (569) 
nan

>  <Standardized_SMILES>  (569) 
CC12CC3CC(C)(C1)CC(N)(C3)C2

>  <Name>  (569) 
Memantine

>  <Pocket>  (569) 
nan

>  <ATP_Site>  (569) 
nan

>  <Peripheral>  (569) 
nan

>  <Num_H_Atoms_ProtBoundConf>  (569) 
nan

>  <Num_Resolved_Atoms>  (569) 
nan

>  <Num_Not_Resolved_Atoms>  (569) 
nan

$$$$
CHEMBL1201348
     RDKit          3D

  0  0  0  0  0  0  0  0  0  0999 V3000
M  V30 BEGIN CTAB
M  V30 COUNTS 33 34 0 0 0
M  V30 BEGIN ATOM
M  V30 1 C -1.249907 -2.062204 3.372573 0
M  V30 2 C -0.457737 -1.604220 2.203912 0
M  V30 3 C 0.516813 -2.322193 1.487158 0
M  V30 4 C 1.201653 -1.762262 0.384500 0
M  V30 5 O 2.021630 -2.701080 -0.030241 0
M  V30 6 P 3.151035 -2.920185 -1.206037 0
M  V30 7 O 3.767654 -4.336822 -1.146996 0
M  V30 8 O 2.490697 -2.829444 -2.768454 0
M  V30 9 O 4.482860 -1.858657 -1.119793 0
M  V30 10 C 0.817665 -0.474717 0.101596 0
M  V30 11 C 1.498795 0.018210 -0.959121 0
M  V30 12 C 1.276046 1.293415 -1.420553 0
M  V30 13 C 0.336808 2.100352 -0.794482 0
M  V30 14 C -0.334487 1.565441 0.278560 0
M  V30 15 C -0.120515 0.289083 0.750736 0
M  V30 16 C -0.757503 -0.303165 1.816547 0
M  V30 17 O -1.697859 0.489683 2.451839 0
M  V30 18 P -3.346937 0.571110 2.047769 0
M  V30 19 O -4.134635 -0.183538 3.100702 0
M  V30 20 O -3.706177 -0.077820 0.552846 0
M  V30 21 O -3.829035 2.191767 2.057507 0
M  V30 22 H -2.313436 -2.249143 3.130267 0
M  V30 23 H -0.768639 -2.971445 3.836731 0
M  V30 24 H -1.229380 -1.310418 4.200185 0
M  V30 25 H 0.577451 -3.297224 1.966070 0
M  V30 26 H 1.562837 -2.465843 -2.721587 0
M  V30 27 H 4.615552 -1.366909 -1.955679 0
M  V30 28 H 2.233835 -0.496833 -1.514599 0
M  V30 29 H 1.780938 1.762989 -2.265466 0
M  V30 30 H 0.136565 3.112739 -1.133920 0
M  V30 31 H -1.077079 2.152300 0.802339 0
M  V30 32 H -3.533790 0.551876 -0.204976 0
M  V30 33 H -3.970739 2.513085 1.135174 0
M  V30 END ATOM
M  V30 BEGIN BOND
M  V30 1 1 1 2
M  V30 2 2 2 3
M  V30 3 1 3 4
M  V30 4 1 4 5
M  V30 5 1 5 6
M  V30 6 2 6 7
M  V30 7 1 6 8
M  V30 8 1 6 9
M  V30 9 2 4 10
M  V30 10 1 10 11
M  V30 11 2 11 12
M  V30 12 1 12 13
M  V30 13 2 13 14
M  V30 14 1 14 15
M  V30 15 2 15 16
M  V30 16 1 16 17
M  V30 17 1 17 18
M  V30 18 2 18 19
M  V30 19 1 18 20
M  V30 20 1 18 21
M  V30 21 1 16 2
M  V30 22 1 15 10
M  V30 23 1 1 22
M  V30 24 1 1 23
M  V30 25 1 1 24
M  V30 26 1 3 25
M  V30 27 1 8 26
M  V30 28 1 9 27
M  V30 29 1 11 28
M  V30 30 1 12 29
M  V30 31 1 13 30
M  V30 32 1 14 31
M  V30 33 1 20 32
M  V30 34 1 21 33
M  V30 END BOND
M  V30 END CTAB
M  END
>  <Dataset>  (570) 
OralDrugs

>  <Ligand_Instance>  (570) 
nan

>  <PDB_ID>  (570) 
nan

>  <Standardized_SMILES>  (570) 
Cc1cc(OP(=O)(O)O)c2ccccc2c1OP(=O)(O)O

>  <Name>  (570) 
Menadiol Diphosphoric Acid

>  <Pocket>  (570) 
nan

>  <ATP_Site>  (570) 
nan

>  <Peripheral>  (570) 
nan

>  <Num_H_Atoms_ProtBoundConf>  (570) 
nan

>  <Num_Resolved_Atoms>  (570) 
nan

>  <Num_Not_Resolved_Atoms>  (570) 
nan

$$$$
CHEMBL590
     RDKit          3D

  0  0  0  0  0  0  0  0  0  0999 V3000
M  V30 BEGIN CTAB
M  V30 COUNTS 21 22 0 0 0
M  V30 BEGIN ATOM
M  V30 1 C 1.123057 2.105856 3.396235 0
M  V30 2 C 0.962833 1.058912 2.351797 0
M  V30 3 C 1.386149 -0.171504 2.629557 0
M  V30 4 C 1.276893 -1.276410 1.674561 0
M  V30 5 O 1.677484 -2.446218 1.934026 0
M  V30 6 C 0.673215 -1.006128 0.356711 0
M  V30 7 C 0.553817 -2.021686 -0.567765 0
M  V30 8 C -0.013248 -1.768339 -1.806032 0
M  V30 9 C -0.438403 -0.462198 -2.041289 0
M  V30 10 C -0.310888 0.535846 -1.107711 0
M  V30 11 C 0.256729 0.282370 0.131827 0
M  V30 12 C 0.357163 1.385954 1.064287 0
M  V30 13 O -0.047042 2.547510 0.790804 0
M  V30 14 H 1.263441 1.628733 4.392213 0
M  V30 15 H 2.030101 2.714794 3.152277 0
M  V30 16 H 0.235934 2.755943 3.426522 0
M  V30 17 H 1.830968 -0.360769 3.606751 0
M  V30 18 H 0.903999 -3.030252 -0.332233 0
M  V30 19 H -0.129446 -2.517406 -2.557147 0
M  V30 20 H -0.888257 -0.210094 -2.991870 0
M  V30 21 H -0.656659 1.540249 -1.334965 0
M  V30 END ATOM
M  V30 BEGIN BOND
M  V30 1 1 1 2
M  V30 2 2 2 3
M  V30 3 1 3 4
M  V30 4 2 4 5
M  V30 5 1 4 6
M  V30 6 2 6 7
M  V30 7 1 7 8
M  V30 8 2 8 9
M  V30 9 1 9 10
M  V30 10 2 10 11
M  V30 11 1 11 12
M  V30 12 2 12 13
M  V30 13 1 12 2
M  V30 14 1 11 6
M  V30 15 1 1 14
M  V30 16 1 1 15
M  V30 17 1 1 16
M  V30 18 1 3 17
M  V30 19 1 7 18
M  V30 20 1 8 19
M  V30 21 1 9 20
M  V30 22 1 10 21
M  V30 END BOND
M  V30 END CTAB
M  END
>  <Dataset>  (571) 
OralDrugs

>  <Ligand_Instance>  (571) 
nan

>  <PDB_ID>  (571) 
nan

>  <Standardized_SMILES>  (571) 
CC1=CC(=O)c2ccccc2C1=O

>  <Name>  (571) 
Menadione

>  <Pocket>  (571) 
nan

>  <ATP_Site>  (571) 
nan

>  <Peripheral>  (571) 
nan

>  <Num_H_Atoms_ProtBoundConf>  (571) 
nan

>  <Num_Resolved_Atoms>  (571) 
nan

>  <Num_Not_Resolved_Atoms>  (571) 
nan

$$$$
CHEMBL524004
     RDKit          3D

  0  0  0  0  0  0  0  0  0  0999 V3000
M  V30 BEGIN CTAB
M  V30 COUNTS 51 53 0 0 0
M  V30 BEGIN ATOM
M  V30 1 C 0.705673 -5.017666 1.919344 0
M  V30 2 N 0.340049 -3.753183 1.292008 0 CHG=1 VAL=4
M  V30 3 C -0.929429 -4.030739 0.622545 0
M  V30 4 C 1.291483 -3.499879 0.248150 0
M  V30 5 C 2.600323 -2.971502 0.713088 0
M  V30 6 C 2.514029 -2.045949 1.889882 0
M  V30 7 C 1.126244 -1.604608 2.222174 0
M  V30 8 O 0.586123 -0.611282 1.427003 0
M  V30 9 C 0.246277 0.607259 1.991672 0
M  V30 10 O 0.339882 1.030707 3.194635 0
M  V30 11 C -0.345288 1.720178 1.170641 0
M  V30 12 O -0.594110 2.828501 2.010196 0
M  V30 13 C 0.571398 2.142613 0.088642 0
M  V30 14 C 0.062332 3.224062 -0.603201 0
M  V30 15 C 0.760345 3.792492 -1.669417 0
M  V30 16 C 1.984022 3.262957 -2.039653 0
M  V30 17 C 2.469830 2.190820 -1.339923 0
M  V30 18 C 1.791999 1.604320 -0.270488 0
M  V30 19 C -1.660416 1.271359 0.643644 0
M  V30 20 C -2.852812 1.942007 0.945192 0
M  V30 21 C -4.067470 1.505228 0.442557 0
M  V30 22 C -4.139006 0.383450 -0.379729 0
M  V30 23 C -2.956279 -0.297220 -0.690165 0
M  V30 24 C -1.729178 0.146187 -0.180698 0
M  V30 25 C 0.182752 -2.759798 2.280854 0
M  V30 26 H 1.696631 -4.946043 2.417738 0
M  V30 27 H 0.650568 -5.869541 1.221797 0
M  V30 28 H -0.006148 -5.233135 2.768281 0
M  V30 29 H -1.779385 -3.664504 1.233453 0
M  V30 30 H -1.033634 -5.101900 0.365582 0
M  V30 31 H -0.972687 -3.464843 -0.333479 0
M  V30 32 H 1.468185 -4.460196 -0.283746 0
M  V30 33 H 0.804010 -2.841094 -0.528730 0
M  V30 34 H 3.293751 -3.824461 0.883181 0
M  V30 35 H 3.067898 -2.415944 -0.146178 0
M  V30 36 H 2.892812 -2.633411 2.769185 0
M  V30 37 H 3.203777 -1.181085 1.830151 0
M  V30 38 H 1.180259 -1.181127 3.250963 0
M  V30 39 H -0.948503 2.441905 2.850011 0
M  V30 40 H -0.870753 3.748030 -0.438363 0
M  V30 41 H 0.422563 4.635096 -2.251899 0
M  V30 42 H 2.608051 3.620239 -2.844434 0
M  V30 43 H 3.421307 1.673557 -1.524036 0
M  V30 44 H 2.097951 0.775610 0.322073 0
M  V30 45 H -2.809411 2.816240 1.584053 0
M  V30 46 H -4.997866 2.031249 0.680329 0
M  V30 47 H -5.066856 0.003440 -0.796961 0
M  V30 48 H -2.927549 -1.187329 -1.329465 0
M  V30 49 H -0.805722 -0.396207 -0.432987 0
M  V30 50 H -0.857749 -2.321464 2.226007 0
M  V30 51 H 0.217426 -3.210104 3.303179 0
M  V30 END ATOM
M  V30 BEGIN BOND
M  V30 1 1 1 2
M  V30 2 1 2 3
M  V30 3 1 2 4
M  V30 4 1 4 5
M  V30 5 1 5 6
M  V30 6 1 6 7
M  V30 7 1 7 8
M  V30 8 1 8 9
M  V30 9 2 9 10
M  V30 10 1 9 11
M  V30 11 1 11 12
M  V30 12 1 11 13
M  V30 13 2 13 14
M  V30 14 1 14 15
M  V30 15 2 15 16
M  V30 16 1 16 17
M  V30 17 2 17 18
M  V30 18 1 11 19
M  V30 19 2 19 20
M  V30 20 1 20 21
M  V30 21 2 21 22
M  V30 22 1 22 23
M  V30 23 2 23 24
M  V30 24 1 7 25
M  V30 25 1 25 2
M  V30 26 1 18 13
M  V30 27 1 24 19
M  V30 28 1 1 26
M  V30 29 1 1 27
M  V30 30 1 1 28
M  V30 31 1 3 29
M  V30 32 1 3 30
M  V30 33 1 3 31
M  V30 34 1 4 32
M  V30 35 1 4 33
M  V30 36 1 5 34
M  V30 37 1 5 35
M  V30 38 1 6 36
M  V30 39 1 6 37
M  V30 40 1 7 38
M  V30 41 1 12 39
M  V30 42 1 14 40
M  V30 43 1 15 41
M  V30 44 1 16 42
M  V30 45 1 17 43
M  V30 46 1 18 44
M  V30 47 1 20 45
M  V30 48 1 21 46
M  V30 49 1 22 47
M  V30 50 1 23 48
M  V30 51 1 24 49
M  V30 52 1 25 50
M  V30 53 1 25 51
M  V30 END BOND
M  V30 END CTAB
M  END
>  <Dataset>  (572) 
OralDrugs

>  <Ligand_Instance>  (572) 
nan

>  <PDB_ID>  (572) 
nan

>  <Standardized_SMILES>  (572) 
C[N+]1(C)CCCC(OC(=O)C(O)(c2ccccc2)c2ccccc2)C1

>  <Name>  (572) 
Mepenzolate

>  <Pocket>  (572) 
nan

>  <ATP_Site>  (572) 
nan

>  <Peripheral>  (572) 
nan

>  <Num_H_Atoms_ProtBoundConf>  (572) 
nan

>  <Num_Resolved_Atoms>  (572) 
nan

>  <Num_Not_Resolved_Atoms>  (572) 
nan

$$$$
CHEMBL607
     RDKit          3D

  0  0  0  0  0  0  0  0  0  0999 V3000
M  V30 BEGIN CTAB
M  V30 COUNTS 39 40 0 0 0
M  V30 BEGIN ATOM
M  V30 1 C -3.589006 -1.721661 2.739936 0
M  V30 2 C -2.918842 -2.599415 1.704863 0
M  V30 3 O -1.988373 -1.826058 1.006245 0
M  V30 4 C -0.925881 -1.204735 1.636545 0
M  V30 5 O -1.018829 -1.493397 2.858876 0
M  V30 6 C 0.159801 -0.350801 1.089879 0
M  V30 7 C 0.898425 -1.195796 0.118428 0
M  V30 8 C 0.344063 -2.007571 -0.845174 0
M  V30 9 C 1.072750 -2.771599 -1.717803 0
M  V30 10 C 2.446554 -2.760516 -1.667391 0
M  V30 11 C 3.061161 -1.953581 -0.708041 0
M  V30 12 C 2.277693 -1.199896 0.151093 0
M  V30 13 C -0.501259 0.733712 0.287544 0
M  V30 14 C -0.079209 2.119919 0.684517 0
M  V30 15 N 1.296196 2.231281 0.981472 0
M  V30 16 C 2.217572 2.190136 -0.092375 0
M  V30 17 C 1.619471 1.443566 2.135472 0
M  V30 18 C 0.982649 0.110047 2.234214 0
M  V30 19 H -3.545628 -0.679245 2.367950 0
M  V30 20 H -3.146998 -1.840337 3.753561 0
M  V30 21 H -4.649929 -2.051555 2.801488 0
M  V30 22 H -2.390329 -3.442651 2.236255 0
M  V30 23 H -3.665154 -3.066942 1.041460 0
M  V30 24 H -0.733017 -2.040439 -0.917843 0
M  V30 25 H 0.535117 -3.388912 -2.453591 0
M  V30 26 H 2.938674 -3.393362 -2.393196 0
M  V30 27 H 4.128405 -1.987542 -0.718694 0
M  V30 28 H 2.884150 -0.635294 0.826080 0
M  V30 29 H -1.608629 0.735184 0.388182 0
M  V30 30 H -0.330832 0.648194 -0.806864 0
M  V30 31 H -0.681528 2.458432 1.539739 0
M  V30 32 H -0.348028 2.812607 -0.159513 0
M  V30 33 H 2.426955 3.182477 -0.564546 0
M  V30 34 H 3.200562 1.824572 0.291304 0
M  V30 35 H 1.942708 1.502922 -0.914814 0
M  V30 36 H 2.748784 1.374685 2.126633 0
M  V30 37 H 1.422334 2.100433 3.015229 0
M  V30 38 H 0.347840 0.135721 3.171412 0
M  V30 39 H 1.756570 -0.633387 2.517581 0
M  V30 END ATOM
M  V30 BEGIN BOND
M  V30 1 1 1 2
M  V30 2 1 2 3
M  V30 3 1 3 4
M  V30 4 2 4 5
M  V30 5 1 4 6
M  V30 6 1 6 7
M  V30 7 2 7 8
M  V30 8 1 8 9
M  V30 9 2 9 10
M  V30 10 1 10 11
M  V30 11 2 11 12
M  V30 12 1 6 13
M  V30 13 1 13 14
M  V30 14 1 14 15
M  V30 15 1 15 16
M  V30 16 1 15 17
M  V30 17 1 17 18
M  V30 18 1 18 6
M  V30 19 1 12 7
M  V30 20 1 1 19
M  V30 21 1 1 20
M  V30 22 1 1 21
M  V30 23 1 2 22
M  V30 24 1 2 23
M  V30 25 1 8 24
M  V30 26 1 9 25
M  V30 27 1 10 26
M  V30 28 1 11 27
M  V30 29 1 12 28
M  V30 30 1 13 29
M  V30 31 1 13 30
M  V30 32 1 14 31
M  V30 33 1 14 32
M  V30 34 1 16 33
M  V30 35 1 16 34
M  V30 36 1 16 35
M  V30 37 1 17 36
M  V30 38 1 17 37
M  V30 39 1 18 38
M  V30 40 1 18 39
M  V30 END BOND
M  V30 END CTAB
M  END
>  <Dataset>  (573) 
OralDrugs

>  <Ligand_Instance>  (573) 
nan

>  <PDB_ID>  (573) 
nan

>  <Standardized_SMILES>  (573) 
CCOC(=O)C1(c2ccccc2)CCN(C)CC1

>  <Name>  (573) 
Meperidine

>  <Pocket>  (573) 
nan

>  <ATP_Site>  (573) 
nan

>  <Peripheral>  (573) 
nan

>  <Num_H_Atoms_ProtBoundConf>  (573) 
nan

>  <Num_Resolved_Atoms>  (573) 
nan

>  <Num_Not_Resolved_Atoms>  (573) 
nan

$$$$
CHEMBL861
     RDKit          3D

  0  0  0  0  0  0  0  0  0  0999 V3000
M  V30 BEGIN CTAB
M  V30 COUNTS 30 31 0 0 0
M  V30 BEGIN ATOM
M  V30 1 C -1.490216 -0.358070 2.418618 0
M  V30 2 C -1.264025 -0.034385 0.971950 0
M  V30 3 C 0.085960 -0.411631 0.453349 0
M  V30 4 C 0.397814 -1.839020 0.546804 0
M  V30 5 C 0.907795 -2.380248 1.713156 0
M  V30 6 C 1.199021 -3.736412 1.787244 0
M  V30 7 C 0.980468 -4.567014 0.686706 0
M  V30 8 C 0.468251 -3.994377 -0.468349 0
M  V30 9 C 0.176347 -2.647394 -0.549582 0
M  V30 10 N 0.121979 0.068315 -0.936704 0
M  V30 11 C 0.265097 1.488436 -0.814508 0
M  V30 12 O -0.110091 2.374883 -1.636112 0
M  V30 13 N 0.926840 1.743987 0.436787 0
M  V30 14 C 1.288261 3.056931 0.992581 0
M  V30 15 C 1.157238 0.465856 1.021124 0
M  V30 16 O 2.089817 0.212296 1.835999 0
M  V30 17 H -1.440279 -1.448265 2.592448 0
M  V30 18 H -0.797338 0.177958 3.072258 0
M  V30 19 H -2.512969 0.047919 2.658012 0
M  V30 20 H -1.355250 1.073107 0.841547 0
M  V30 21 H -2.027548 -0.505767 0.338270 0
M  V30 22 H 1.094098 -1.777319 2.591911 0
M  V30 23 H 1.601814 -4.223471 2.674782 0
M  V30 24 H 1.197940 -5.626046 0.715851 0
M  V30 25 H 0.312519 -4.677907 -1.304388 0
M  V30 26 H -0.219976 -2.306164 -1.500865 0
M  V30 27 H 0.074141 -0.324821 -1.921936 0
M  V30 28 H 2.352228 3.026544 1.230751 0
M  V30 29 H 0.700781 3.287015 1.905352 0
M  V30 30 H 1.022161 3.817924 0.229849 0
M  V30 END ATOM
M  V30 BEGIN BOND
M  V30 1 1 1 2
M  V30 2 1 2 3
M  V30 3 1 3 4
M  V30 4 2 4 5
M  V30 5 1 5 6
M  V30 6 2 6 7
M  V30 7 1 7 8
M  V30 8 2 8 9
M  V30 9 1 3 10
M  V30 10 1 10 11
M  V30 11 2 11 12
M  V30 12 1 11 13
M  V30 13 1 13 14
M  V30 14 1 13 15
M  V30 15 2 15 16
M  V30 16 1 15 3
M  V30 17 1 9 4
M  V30 18 1 1 17
M  V30 19 1 1 18
M  V30 20 1 1 19
M  V30 21 1 2 20
M  V30 22 1 2 21
M  V30 23 1 5 22
M  V30 24 1 6 23
M  V30 25 1 7 24
M  V30 26 1 8 25
M  V30 27 1 9 26
M  V30 28 1 10 27
M  V30 29 1 14 28
M  V30 30 1 14 29
M  V30 31 1 14 30
M  V30 END BOND
M  V30 END CTAB
M  END
>  <Dataset>  (574) 
OralDrugs

>  <Ligand_Instance>  (574) 
nan

>  <PDB_ID>  (574) 
nan

>  <Standardized_SMILES>  (574) 
CCC1(c2ccccc2)NC(=O)N(C)C1=O

>  <Name>  (574) 
Mephenytoin

>  <Pocket>  (574) 
nan

>  <ATP_Site>  (574) 
nan

>  <Peripheral>  (574) 
nan

>  <Num_H_Atoms_ProtBoundConf>  (574) 
nan

>  <Num_Resolved_Atoms>  (574) 
nan

>  <Num_Not_Resolved_Atoms>  (574) 
nan

$$$$
CHEMBL1201148
     RDKit          3D

  0  0  0  0  0  0  0  0  0  0999 V3000
M  V30 BEGIN CTAB
M  V30 COUNTS 55 58 0 0 0
M  V30 BEGIN ATOM
M  V30 1 C -2.548852 3.467831 -1.993081 0
M  V30 2 C -2.637253 2.017842 -1.676250 0 CFG=1
M  V30 3 C -1.517920 1.232153 -2.378608 0
M  V30 4 C -1.238506 0.182918 -1.352596 0 CFG=1
M  V30 5 C 0.002913 -0.626523 -1.579877 0 CFG=2
M  V30 6 C -0.311139 -1.607144 -2.678235 0
M  V30 7 C 0.813231 -2.585405 -2.918669 0
M  V30 8 C 1.390254 -3.097511 -1.653468 0
M  V30 9 C 1.644652 -4.393365 -1.587657 0
M  V30 10 C 2.210250 -4.927830 -0.361502 0
M  V30 11 O 2.444301 -6.154401 -0.317021 0
M  V30 12 C 2.487261 -4.052299 0.762669 0
M  V30 13 C 2.211000 -2.763646 0.636626 0
M  V30 14 C 1.634100 -2.111661 -0.565310 0 CFG=1
M  V30 15 C 2.744370 -1.188967 -1.084930 0
M  V30 16 C 0.355216 -1.388772 -0.342455 0 CFG=1
M  V30 17 C 0.312123 -0.544907 0.875010 0
M  V30 18 O 1.150404 -0.261299 1.721851 0
M  V30 19 C -1.064641 0.057003 1.052123 0
M  V30 20 C -1.203430 1.030952 -0.097114 0 CFG=1
M  V30 21 C -0.019429 1.936369 -0.044590 0
M  V30 22 C -2.536706 1.672580 -0.218624 0 CFG=2
M  V30 23 O -3.430819 0.604390 -0.020291 0
M  V30 24 C -2.872391 2.710389 0.720446 0
M  V30 25 O -3.820825 2.146700 1.272799 0
M  V30 26 C -2.947097 3.947935 1.534342 0
M  V30 27 O -4.007127 3.826921 2.457324 0
M  V30 28 H -3.539911 3.945846 -1.881435 0
M  V30 29 H -2.280088 3.576611 -3.067936 0
M  V30 30 H -1.734277 4.004599 -1.449726 0
M  V30 31 H -3.579513 1.645589 -2.139367 0
M  V30 32 H -0.676120 1.877149 -2.635885 0
M  V30 33 H -1.867287 0.783339 -3.332994 0
M  V30 34 H -2.152856 -0.452492 -1.276211 0
M  V30 35 H 0.788341 0.088492 -1.890120 0
M  V30 36 H -0.497024 -1.017170 -3.593242 0
M  V30 37 H -1.217384 -2.203655 -2.450491 0
M  V30 38 H 0.506691 -3.404887 -3.600634 0
M  V30 39 H 1.614062 -2.045219 -3.463397 0
M  V30 40 H 1.435542 -5.038617 -2.428858 0
M  V30 41 H 2.908357 -4.473155 1.665206 0
M  V30 42 H 2.446549 -2.180403 1.515235 0
M  V30 43 H 2.943746 -0.359490 -0.382220 0
M  V30 44 H 3.668345 -1.818898 -1.097038 0
M  V30 45 H 2.575451 -0.860122 -2.120007 0
M  V30 46 H -0.434058 -2.161068 -0.196892 0
M  V30 47 H -1.791675 -0.754288 1.002176 0
M  V30 48 H -1.136703 0.582442 2.024876 0
M  V30 49 H -0.029382 2.432197 0.942479 0
M  V30 50 H 0.870236 1.261032 -0.031170 0
M  V30 51 H 0.129917 2.592272 -0.902956 0
M  V30 52 H -4.322444 0.880224 -0.341094 0
M  V30 53 H -3.307077 4.764852 0.841111 0
M  V30 54 H -2.026087 4.210030 2.058064 0
M  V30 55 H -3.740153 4.363420 3.258658 0
M  V30 END ATOM
M  V30 BEGIN BOND
M  V30 1 1 1 2
M  V30 2 1 2 3
M  V30 3 1 3 4
M  V30 4 1 4 5
M  V30 5 1 5 6
M  V30 6 1 6 7
M  V30 7 1 7 8
M  V30 8 2 8 9
M  V30 9 1 9 10
M  V30 10 2 10 11
M  V30 11 1 10 12
M  V30 12 2 12 13
M  V30 13 1 13 14
M  V30 14 1 14 15 CFG=3
M  V30 15 1 14 16
M  V30 16 1 16 17
M  V30 17 2 17 18
M  V30 18 1 17 19
M  V30 19 1 19 20
M  V30 20 1 20 21 CFG=3
M  V30 21 1 20 22
M  V30 22 1 22 23 CFG=3
M  V30 23 1 22 24
M  V30 24 2 24 25
M  V30 25 1 24 26
M  V30 26 1 26 27
M  V30 27 1 22 2
M  V30 28 1 20 4
M  V30 29 1 16 5
M  V30 30 1 14 8
M  V30 31 1 1 28
M  V30 32 1 1 29
M  V30 33 1 1 30
M  V30 34 1 2 31 CFG=3
M  V30 35 1 3 32
M  V30 36 1 3 33
M  V30 37 1 4 34 CFG=1
M  V30 38 1 5 35 CFG=3
M  V30 39 1 6 36
M  V30 40 1 6 37
M  V30 41 1 7 38
M  V30 42 1 7 39
M  V30 43 1 9 40
M  V30 44 1 12 41
M  V30 45 1 13 42
M  V30 46 1 15 43
M  V30 47 1 15 44
M  V30 48 1 15 45
M  V30 49 1 16 46 CFG=1
M  V30 50 1 19 47
M  V30 51 1 19 48
M  V30 52 1 21 49
M  V30 53 1 21 50
M  V30 54 1 21 51
M  V30 55 1 23 52
M  V30 56 1 26 53
M  V30 57 1 26 54
M  V30 58 1 27 55
M  V30 END BOND
M  V30 END CTAB
M  END
>  <Dataset>  (575) 
OralDrugs

>  <Ligand_Instance>  (575) 
nan

>  <PDB_ID>  (575) 
nan

>  <Standardized_SMILES>  (575) 
C[C@H]1C[C@H]2[C@@H]3CCC4=CC(=O)C=C[C@]4(C)[C@H]3C(=O)C[C@]2(C)[C@@]1(O)C(=O)CO

>  <Name>  (575) 
Meprednisone

>  <Pocket>  (575) 
nan

>  <ATP_Site>  (575) 
nan

>  <Peripheral>  (575) 
nan

>  <Num_H_Atoms_ProtBoundConf>  (575) 
nan

>  <Num_Resolved_Atoms>  (575) 
nan

>  <Num_Not_Resolved_Atoms>  (575) 
nan

$$$$
CHEMBL1200751
     RDKit          3D

  0  0  0  0  0  0  0  0  0  0999 V3000
M  V30 BEGIN CTAB
M  V30 COUNTS 14 15 0 0 0
M  V30 BEGIN ATOM
M  V30 1 S -0.776065 0.827178 2.383277 0
M  V30 2 C 0.393797 -0.050372 1.674206 0
M  V30 3 N 0.548691 -1.341683 2.029897 0
M  V30 4 C 1.489287 -2.179224 1.510257 0
M  V30 5 N 2.314112 -1.649118 0.570784 0
M  V30 6 C 2.223070 -0.383123 0.167753 0
M  V30 7 N 2.881584 0.397503 -0.719033 0
M  V30 8 C 2.332067 1.621936 -0.696703 0
M  V30 9 N 1.314073 1.710239 0.178697 0
M  V30 10 C 1.255022 0.461347 0.709255 0
M  V30 11 H -0.076943 -1.736361 2.739653 0
M  V30 12 H 1.543689 -3.204390 1.853878 0
M  V30 13 H 2.687291 2.427549 -1.322182 0
M  V30 14 H 0.698179 2.497774 0.427452 0
M  V30 END ATOM
M  V30 BEGIN BOND
M  V30 1 2 1 2
M  V30 2 1 2 3
M  V30 3 1 3 4
M  V30 4 2 4 5
M  V30 5 1 5 6
M  V30 6 1 6 7
M  V30 7 2 7 8
M  V30 8 1 8 9
M  V30 9 1 9 10
M  V30 10 1 10 2
M  V30 11 2 10 6
M  V30 12 1 3 11
M  V30 13 1 4 12
M  V30 14 1 8 13
M  V30 15 1 9 14
M  V30 END BOND
M  V30 END CTAB
M  END
>  <Dataset>  (576) 
OralDrugs

>  <Ligand_Instance>  (576) 
nan

>  <PDB_ID>  (576) 
nan

>  <Standardized_SMILES>  (576) 
S=c1[nH]cnc2nc[nH]c12

>  <Name>  (576) 
Mercaptopurine

>  <Pocket>  (576) 
nan

>  <ATP_Site>  (576) 
nan

>  <Peripheral>  (576) 
nan

>  <Num_H_Atoms_ProtBoundConf>  (576) 
nan

>  <Num_Resolved_Atoms>  (576) 
nan

>  <Num_Not_Resolved_Atoms>  (576) 
nan

$$$$
CHEMBL1425
     RDKit          3D

  0  0  0  0  0  0  0  0  0  0999 V3000
M  V30 BEGIN CTAB
M  V30 COUNTS 14 15 0 0 0
M  V30 BEGIN ATOM
M  V30 1 S -1.266912 -0.907355 0.358252 0
M  V30 2 C 0.248580 -0.518168 1.256723 0
M  V30 3 N 0.296011 -0.833851 2.566449 0
M  V30 4 C 1.417729 -0.552084 3.256161 0
M  V30 5 N 2.453734 0.033735 2.620503 0
M  V30 6 C 2.413477 0.351946 1.312355 0
M  V30 7 N 3.295999 0.921616 0.494731 0
M  V30 8 C 2.722957 0.995268 -0.708212 0
M  V30 9 N 1.471021 0.483915 -0.708421 0
M  V30 10 C 1.275726 0.080228 0.557738 0
M  V30 11 H -0.992590 -1.680890 -0.765319 0
M  V30 12 H 1.637868 -0.729883 4.302676 0
M  V30 13 H 3.135004 1.402628 -1.642644 0
M  V30 14 H 0.719250 0.352151 -1.393801 0
M  V30 END ATOM
M  V30 BEGIN BOND
M  V30 1 1 1 2
M  V30 2 2 2 3
M  V30 3 1 3 4
M  V30 4 2 4 5
M  V30 5 1 5 6
M  V30 6 1 6 7
M  V30 7 2 7 8
M  V30 8 1 8 9
M  V30 9 1 9 10
M  V30 10 1 10 2
M  V30 11 2 10 6
M  V30 12 1 1 11
M  V30 13 1 4 12
M  V30 14 1 8 13
M  V30 15 1 9 14
M  V30 END BOND
M  V30 END CTAB
M  END
>  <Dataset>  (577) 
OralDrugs

>  <Ligand_Instance>  (577) 
nan

>  <PDB_ID>  (577) 
nan

>  <Standardized_SMILES>  (577) 
Sc1ncnc2nc[nH]c12

>  <Name>  (577) 
Mercaptopurine Anhydrous

>  <Pocket>  (577) 
nan

>  <ATP_Site>  (577) 
nan

>  <Peripheral>  (577) 
nan

>  <Num_H_Atoms_ProtBoundConf>  (577) 
nan

>  <Num_Resolved_Atoms>  (577) 
nan

>  <Num_Not_Resolved_Atoms>  (577) 
nan

$$$$
CHEMBL704
     RDKit          3D

  0  0  0  0  0  0  0  0  0  0999 V3000
M  V30 BEGIN CTAB
M  V30 COUNTS 18 18 0 0 0
M  V30 BEGIN ATOM
M  V30 1 N -1.537154 0.176823 2.351553 0
M  V30 2 C -0.159889 0.043996 1.987929 0
M  V30 3 C 0.838057 -0.326949 2.878137 0
M  V30 4 C 2.114464 -0.415060 2.394123 0
M  V30 5 C 2.415285 -0.148437 1.073045 0
M  V30 6 O 3.748418 -0.264511 0.668531 0
M  V30 7 C 1.422957 0.212770 0.219977 0
M  V30 8 C 1.710081 0.498726 -1.173055 0
M  V30 9 O 2.896291 0.416410 -1.620818 0
M  V30 10 O 0.762921 0.869677 -2.097453 0
M  V30 11 C 0.128778 0.311430 0.671566 0
M  V30 12 H -1.546052 0.993493 3.029891 0
M  V30 13 H -2.394381 -0.350008 2.072829 0
M  V30 14 H 0.536301 -0.521065 3.895335 0
M  V30 15 H 2.893680 -0.708224 3.103995 0
M  V30 16 H 4.089373 -1.157009 0.335151 0
M  V30 17 H 0.905180 1.589330 -2.794467 0
M  V30 18 H -0.636334 0.601999 -0.036812 0
M  V30 END ATOM
M  V30 BEGIN BOND
M  V30 1 1 1 2
M  V30 2 2 2 3
M  V30 3 1 3 4
M  V30 4 2 4 5
M  V30 5 1 5 6
M  V30 6 1 5 7
M  V30 7 1 7 8
M  V30 8 2 8 9
M  V30 9 1 8 10
M  V30 10 2 7 11
M  V30 11 1 11 2
M  V30 12 1 1 12
M  V30 13 1 1 13
M  V30 14 1 3 14
M  V30 15 1 4 15
M  V30 16 1 6 16
M  V30 17 1 10 17
M  V30 18 1 11 18
M  V30 END BOND
M  V30 END CTAB
M  END
>  <Dataset>  (578) 
OralDrugs

>  <Ligand_Instance>  (578) 
nan

>  <PDB_ID>  (578) 
nan

>  <Standardized_SMILES>  (578) 
Nc1ccc(O)c(C(=O)O)c1

>  <Name>  (578) 
Mesalamine

>  <Pocket>  (578) 
nan

>  <ATP_Site>  (578) 
nan

>  <Peripheral>  (578) 
nan

>  <Num_H_Atoms_ProtBoundConf>  (578) 
nan

>  <Num_Resolved_Atoms>  (578) 
nan

>  <Num_Not_Resolved_Atoms>  (578) 
nan

$$$$
CHEMBL1088
     RDKit          3D

  0  0  0  0  0  0  0  0  0  0999 V3000
M  V30 BEGIN CTAB
M  V30 COUNTS 52 55 0 0 0
M  V30 BEGIN ATOM
M  V30 1 C 0.135186 -2.423285 2.027530 0
M  V30 2 N 0.512817 -1.078216 1.660521 0
M  V30 3 C 0.226328 -0.150090 2.699417 0
M  V30 4 C 1.304122 0.768065 3.134059 0
M  V30 5 C 2.698118 0.357932 2.860398 0
M  V30 6 C 2.846079 -0.929651 2.094365 0
M  V30 7 C 1.780386 -1.015206 1.045345 0
M  V30 8 C 2.009552 0.121705 0.093747 0
M  V30 9 C 1.068287 0.143924 -1.085024 0
M  V30 10 N -0.325205 0.258712 -0.713203 0
M  V30 11 C -0.820242 1.501523 -0.254472 0
M  V30 12 C -0.018889 2.625156 -0.214815 0
M  V30 13 C -0.388687 3.871182 0.187147 0
M  V30 14 C -1.704744 4.070737 0.608285 0
M  V30 15 C -2.559780 2.962476 0.586676 0
M  V30 16 C -2.084021 1.775803 0.169006 0
M  V30 17 S -3.298589 0.494385 0.196988 0
M  V30 18 C -2.473313 -0.955513 -0.433382 0
M  V30 19 C -3.289770 -2.029534 -0.494206 0
M  V30 20 C -2.767414 -3.232268 -0.960546 0
M  V30 21 C -1.441269 -3.263784 -1.336408 0
M  V30 22 S -0.806375 -4.787540 -1.920580 0 CHG=1 VAL=3
M  V30 23 C -0.146699 -5.749864 -0.564724 0
M  V30 24 O -2.058746 -5.675777 -2.601520 0 CHG=-1 VAL=1
M  V30 25 C -0.706913 -2.102072 -1.229405 0
M  V30 26 C -1.166970 -0.882970 -0.776410 0
M  V30 27 H 0.397050 -3.172828 1.283292 0
M  V30 28 H 0.557254 -2.738238 2.997724 0
M  V30 29 H -0.972298 -2.429214 2.141939 0
M  V30 30 H -0.701069 0.400085 2.413230 0
M  V30 31 H -0.125877 -0.759593 3.586479 0
M  V30 32 H 1.194620 0.943094 4.244797 0
M  V30 33 H 1.128332 1.778444 2.709991 0
M  V30 34 H 3.276205 0.197481 3.804418 0
M  V30 35 H 3.285341 1.130610 2.320456 0
M  V30 36 H 3.829313 -0.916140 1.545094 0
M  V30 37 H 2.905803 -1.820392 2.763269 0
M  V30 38 H 1.942700 -1.992669 0.520224 0
M  V30 39 H 2.111858 1.042796 0.655358 0
M  V30 40 H 3.030549 -0.070042 -0.354038 0
M  V30 41 H 1.332657 -0.719332 -1.690789 0
M  V30 42 H 1.266150 1.093606 -1.689651 0
M  V30 43 H 1.012148 2.637406 -0.522317 0
M  V30 44 H 0.229838 4.757893 0.222957 0
M  V30 45 H -2.043348 5.043168 0.936287 0
M  V30 46 H -3.563746 3.182267 0.923715 0
M  V30 47 H -4.329467 -2.075766 -0.218394 0
M  V30 48 H -3.371745 -4.123147 -1.031401 0
M  V30 49 H 0.366319 -6.646291 -0.909532 0
M  V30 50 H -0.878696 -5.945542 0.224768 0
M  V30 51 H 0.651464 -5.099544 -0.122687 0
M  V30 52 H 0.309741 -2.270483 -1.550290 0
M  V30 END ATOM
M  V30 BEGIN BOND
M  V30 1 1 1 2
M  V30 2 1 2 3
M  V30 3 1 3 4
M  V30 4 1 4 5
M  V30 5 1 5 6
M  V30 6 1 6 7
M  V30 7 1 7 8
M  V30 8 1 8 9
M  V30 9 1 9 10
M  V30 10 1 10 11
M  V30 11 2 11 12
M  V30 12 1 12 13
M  V30 13 2 13 14
M  V30 14 1 14 15
M  V30 15 2 15 16
M  V30 16 1 16 17
M  V30 17 1 17 18
M  V30 18 2 18 19
M  V30 19 1 19 20
M  V30 20 2 20 21
M  V30 21 1 21 22
M  V30 22 1 22 23
M  V30 23 1 22 24
M  V30 24 1 21 25
M  V30 25 2 25 26
M  V30 26 1 7 2
M  V30 27 1 26 10
M  V30 28 1 16 11
M  V30 29 1 26 18
M  V30 30 1 1 27
M  V30 31 1 1 28
M  V30 32 1 1 29
M  V30 33 1 3 30
M  V30 34 1 3 31
M  V30 35 1 4 32
M  V30 36 1 4 33
M  V30 37 1 5 34
M  V30 38 1 5 35
M  V30 39 1 6 36
M  V30 40 1 6 37
M  V30 41 1 7 38
M  V30 42 1 8 39
M  V30 43 1 8 40
M  V30 44 1 9 41
M  V30 45 1 9 42
M  V30 46 1 12 43
M  V30 47 1 13 44
M  V30 48 1 14 45
M  V30 49 1 15 46
M  V30 50 1 19 47
M  V30 51 1 20 48
M  V30 52 1 23 49
M  V30 53 1 23 50
M  V30 54 1 23 51
M  V30 55 1 25 52
M  V30 END BOND
M  V30 END CTAB
M  END
>  <Dataset>  (579) 
OralDrugs

>  <Ligand_Instance>  (579) 
nan

>  <PDB_ID>  (579) 
nan

>  <Standardized_SMILES>  (579) 
CN1CCCCC1CCN1c2ccccc2Sc2ccc([S+](C)[O-])cc21

>  <Name>  (579) 
Mesoridazine

>  <Pocket>  (579) 
nan

>  <ATP_Site>  (579) 
nan

>  <Peripheral>  (579) 
nan

>  <Num_H_Atoms_ProtBoundConf>  (579) 
nan

>  <Num_Resolved_Atoms>  (579) 
nan

>  <Num_Not_Resolved_Atoms>  (579) 
nan

$$$$
CHEMBL1079604
     RDKit          3D

  0  0  0  0  0  0  0  0  0  0999 V3000
M  V30 BEGIN CTAB
M  V30 COUNTS 31 32 0 0 0
M  V30 BEGIN ATOM
M  V30 1 C -2.675342 -1.484335 2.354040 0
M  V30 2 C -1.217441 -1.751692 2.250115 0
M  V30 3 C -0.429381 -2.420593 3.156556 0
M  V30 4 C 0.928978 -2.595056 2.920909 0
M  V30 5 C 1.584412 -3.342194 4.024505 0
M  V30 6 C 1.479179 -2.071754 1.734849 0
M  V30 7 C 0.711832 -1.376157 0.771761 0
M  V30 8 O 1.610519 -1.074066 -0.152998 0
M  V30 9 C 1.563985 -0.399718 -1.334724 0
M  V30 10 C 1.211622 1.052136 -1.338008 0
M  V30 11 C -0.203017 1.409468 -1.040524 0
M  V30 12 N -0.446874 2.651122 -1.800824 0
M  V30 13 C 0.345740 2.422766 -2.961904 0
M  V30 14 O 0.420773 2.851469 -4.146395 0
M  V30 15 O 1.316581 1.451102 -2.732834 0
M  V30 16 C -0.606019 -1.273075 1.120329 0
M  V30 17 H -2.882354 -0.464224 2.741020 0
M  V30 18 H -3.154267 -1.518020 1.332382 0
M  V30 19 H -3.203753 -2.279690 2.917840 0
M  V30 20 H -0.971789 -2.771666 4.023673 0
M  V30 21 H 1.379617 -2.757557 4.959291 0
M  V30 22 H 1.247186 -4.388013 4.092737 0
M  V30 23 H 2.685605 -3.313435 3.895402 0
M  V30 24 H 2.548221 -2.350916 1.809827 0
M  V30 25 H 0.810238 -0.867047 -2.068746 0
M  V30 26 H 2.527229 -0.548731 -1.944867 0
M  V30 27 H 1.952535 1.645057 -0.775203 0
M  V30 28 H -0.359142 1.558161 0.032069 0
M  V30 29 H -0.913494 0.685646 -1.512099 0
M  V30 30 H -0.959026 3.557455 -1.774473 0
M  V30 31 H -1.147716 -0.760757 0.361759 0
M  V30 END ATOM
M  V30 BEGIN BOND
M  V30 1 1 1 2
M  V30 2 2 2 3
M  V30 3 1 3 4
M  V30 4 1 4 5
M  V30 5 2 4 6
M  V30 6 1 6 7
M  V30 7 1 7 8
M  V30 8 1 8 9
M  V30 9 1 9 10
M  V30 10 1 10 11
M  V30 11 1 11 12
M  V30 12 1 12 13
M  V30 13 2 13 14
M  V30 14 1 13 15
M  V30 15 2 7 16
M  V30 16 1 16 2
M  V30 17 1 15 10
M  V30 18 1 1 17
M  V30 19 1 1 18
M  V30 20 1 1 19
M  V30 21 1 3 20
M  V30 22 1 5 21
M  V30 23 1 5 22
M  V30 24 1 5 23
M  V30 25 1 6 24
M  V30 26 1 9 25
M  V30 27 1 9 26
M  V30 28 1 10 27
M  V30 29 1 11 28
M  V30 30 1 11 29
M  V30 31 1 12 30
M  V30 32 1 16 31
M  V30 END BOND
M  V30 END CTAB
M  END
>  <Dataset>  (580) 
OralDrugs

>  <Ligand_Instance>  (580) 
nan

>  <PDB_ID>  (580) 
nan

>  <Standardized_SMILES>  (580) 
Cc1cc(C)cc(OCC2CNC(=O)O2)c1

>  <Name>  (580) 
Metaxalone

>  <Pocket>  (580) 
nan

>  <ATP_Site>  (580) 
nan

>  <Peripheral>  (580) 
nan

>  <Num_H_Atoms_ProtBoundConf>  (580) 
nan

>  <Num_Resolved_Atoms>  (580) 
nan

>  <Num_Not_Resolved_Atoms>  (580) 
nan

$$$$
CHEMBL1431
     RDKit          3D

  0  0  0  0  0  0  0  0  0  0999 V3000
M  V30 BEGIN CTAB
M  V30 COUNTS 20 19 0 0 0
M  V30 BEGIN ATOM
M  V30 1 C 0.937625 2.249181 0.556970 0
M  V30 2 N 0.871308 1.087711 1.426784 0
M  V30 3 C 0.442984 1.270555 2.816554 0
M  V30 4 C 1.237997 -0.181976 0.849457 0
M  V30 5 N 2.408440 -0.630346 0.486410 0
M  V30 6 N 0.159229 -1.110278 0.633310 0
M  V30 7 C 0.179562 -2.040035 -0.466488 0
M  V30 8 N 1.334137 -2.316476 -1.004923 0
M  V30 9 N -1.005515 -2.670221 -0.991211 0
M  V30 10 H 0.060651 2.169299 -0.137302 0
M  V30 11 H 1.856524 2.145971 -0.056031 0
M  V30 12 H 0.887152 3.194851 1.107740 0
M  V30 13 H -0.582188 1.737185 2.848977 0
M  V30 14 H 1.131262 1.925194 3.363215 0
M  V30 15 H 0.352077 0.304021 3.322880 0
M  V30 16 H 3.253665 -0.002016 0.615122 0
M  V30 17 H -0.679793 -1.155636 1.253723 0
M  V30 18 H 1.418141 -2.989054 -1.813266 0
M  V30 19 H -1.628015 -3.321762 -0.426776 0
M  V30 20 H -1.075149 -2.337287 -1.991709 0
M  V30 END ATOM
M  V30 BEGIN BOND
M  V30 1 1 1 2
M  V30 2 1 2 3
M  V30 3 1 2 4
M  V30 4 2 4 5 CFG=2
M  V30 5 1 4 6
M  V30 6 1 6 7
M  V30 7 2 7 8 CFG=2
M  V30 8 1 7 9
M  V30 9 1 1 10
M  V30 10 1 1 11
M  V30 11 1 1 12
M  V30 12 1 3 13
M  V30 13 1 3 14
M  V30 14 1 3 15
M  V30 15 1 5 16
M  V30 16 1 6 17
M  V30 17 1 8 18
M  V30 18 1 9 19
M  V30 19 1 9 20
M  V30 END BOND
M  V30 END CTAB
M  END
>  <Dataset>  (581) 
OralDrugs

>  <Ligand_Instance>  (581) 
nan

>  <PDB_ID>  (581) 
nan

>  <Standardized_SMILES>  (581) 
CN(C)C(=N)NC(=N)N

>  <Name>  (581) 
Metformin

>  <Pocket>  (581) 
nan

>  <ATP_Site>  (581) 
nan

>  <Peripheral>  (581) 
nan

>  <Num_H_Atoms_ProtBoundConf>  (581) 
nan

>  <Num_Resolved_Atoms>  (581) 
nan

>  <Num_Not_Resolved_Atoms>  (581) 
nan

$$$$
CHEMBL249837
     RDKit          3D

  0  0  0  0  0  0  0  0  0  0999 V3000
M  V30 BEGIN CTAB
M  V30 COUNTS 54 57 0 0 0
M  V30 BEGIN ATOM
M  V30 1 C -1.473557 -3.684279 -0.034910 0
M  V30 2 C -1.778841 -2.434137 0.243378 0
M  V30 3 C -3.198170 -2.175023 0.359035 0
M  V30 4 C -4.152554 -3.151065 0.224216 0
M  V30 5 C -5.486648 -2.834046 0.347783 0
M  V30 6 C -5.950054 -1.562637 0.606257 0
M  V30 7 C -4.962577 -0.605100 0.735939 0
M  V30 8 O -5.382365 0.705192 0.999189 0
M  V30 9 C -3.629431 -0.899214 0.616672 0
M  V30 10 C -2.690038 0.198497 0.775318 0
M  V30 11 O -3.099079 1.374627 1.013896 0
M  V30 12 C -1.243439 -0.073794 0.654644 0
M  V30 13 C -0.441937 0.971806 0.776017 0
M  V30 14 O -0.937990 2.234847 1.002038 0
M  V30 15 C 0.996114 0.607334 0.639632 0 CFG=2
M  V30 16 O 1.383612 -0.094070 1.756782 0
M  V30 17 C 1.874442 1.810003 0.568907 0
M  V30 18 O 2.159540 2.407814 1.657268 0
M  V30 19 C 2.429322 2.347324 -0.668720 0
M  V30 20 C 3.487418 3.332655 -0.713298 0
M  V30 21 N 3.943033 3.777812 -1.984844 0
M  V30 22 O 3.945390 3.740300 0.409096 0
M  V30 23 C 1.879299 1.857319 -1.767889 0
M  V30 24 O 2.311236 2.280491 -3.006551 0
M  V30 25 C 0.795003 0.851947 -1.757955 0 CFG=1
M  V30 26 N 0.568890 0.226338 -3.010577 0
M  V30 27 C 1.668036 -0.482755 -3.569236 0
M  V30 28 C -0.206644 0.986027 -3.941135 0
M  V30 29 C 1.119501 -0.152230 -0.656635 0 CFG=2
M  V30 30 C 0.235446 -1.349557 -0.765432 0 CFG=1
M  V30 31 O 0.993965 -2.501715 -0.961947 0
M  V30 32 C -0.674008 -1.423507 0.414219 0 CFG=2
M  V30 33 H -0.943121 -4.586536 -0.248919 0
M  V30 34 H -0.478857 -4.129938 -0.190187 0
M  V30 35 H -3.862525 -4.168805 0.021308 0
M  V30 36 H -6.202564 -3.652087 0.230562 0
M  V30 37 H -7.006369 -1.347897 0.697542 0
M  V30 38 H -6.118675 0.864648 1.663262 0
M  V30 39 H -0.909944 2.979563 0.306025 0
M  V30 40 H 1.498859 0.559234 2.491669 0
M  V30 41 H 4.972478 3.601578 -1.946432 0
M  V30 42 H 4.990856 3.616008 -1.989062 0
M  V30 43 H 2.985723 1.787531 -3.546921 0
M  V30 44 H -0.135149 1.379192 -1.446253 0
M  V30 45 H 2.503246 -0.479003 -2.839963 0
M  V30 46 H 1.371381 -1.546176 -3.708124 0
M  V30 47 H 1.974286 -0.131118 -4.574452 0
M  V30 48 H 0.171763 2.015058 -4.105672 0
M  V30 49 H -0.249722 0.429301 -4.898917 0
M  V30 50 H -1.249412 1.040992 -3.558760 0
M  V30 51 H 2.174278 -0.471770 -0.824171 0
M  V30 52 H -0.438650 -1.222086 -1.664302 0
M  V30 53 H 0.782825 -2.920309 -1.832741 0
M  V30 54 H -0.142128 -1.785833 1.343762 0
M  V30 END ATOM
M  V30 BEGIN BOND
M  V30 1 2 1 2
M  V30 2 1 2 3
M  V30 3 2 3 4
M  V30 4 1 4 5
M  V30 5 2 5 6
M  V30 6 1 6 7
M  V30 7 1 7 8
M  V30 8 2 7 9
M  V30 9 1 9 10
M  V30 10 2 10 11
M  V30 11 1 10 12
M  V30 12 2 12 13
M  V30 13 1 13 14
M  V30 14 1 13 15
M  V30 15 1 15 16 CFG=1
M  V30 16 1 15 17
M  V30 17 2 17 18
M  V30 18 1 17 19
M  V30 19 1 19 20
M  V30 20 1 20 21
M  V30 21 2 20 22
M  V30 22 2 19 23
M  V30 23 1 23 24
M  V30 24 1 23 25
M  V30 25 1 25 26
M  V30 26 1 26 27
M  V30 27 1 26 28
M  V30 28 1 25 29
M  V30 29 1 29 30
M  V30 30 1 30 31
M  V30 31 1 30 32
M  V30 32 1 32 2
M  V30 33 1 9 3
M  V30 34 1 32 12
M  V30 35 1 29 15
M  V30 36 1 1 33
M  V30 37 1 1 34
M  V30 38 1 4 35
M  V30 39 1 5 36
M  V30 40 1 6 37
M  V30 41 1 8 38
M  V30 42 1 14 39
M  V30 43 1 16 40
M  V30 44 1 21 41
M  V30 45 1 21 42
M  V30 46 1 24 43
M  V30 47 1 25 44 CFG=1
M  V30 48 1 27 45
M  V30 49 1 27 46
M  V30 50 1 27 47
M  V30 51 1 28 48
M  V30 52 1 28 49
M  V30 53 1 28 50
M  V30 54 1 29 51 CFG=3
M  V30 55 1 30 52 CFG=3
M  V30 56 1 31 53
M  V30 57 1 32 54 CFG=1
M  V30 END BOND
M  V30 END CTAB
M  END
>  <Dataset>  (582) 
OralDrugs

>  <Ligand_Instance>  (582) 
nan

>  <PDB_ID>  (582) 
nan

>  <Standardized_SMILES>  (582) 
C=C1c2cccc(O)c2C(=O)C2=C(O)[C@]3(O)C(=O)C(C(N)=O)=C(O)[C@@H](N(C)C)[C@@H]3[C@@H](O)[C@H]12

>  <Name>  (582) 
Methacycline

>  <Pocket>  (582) 
nan

>  <ATP_Site>  (582) 
nan

>  <Peripheral>  (582) 
nan

>  <Num_H_Atoms_ProtBoundConf>  (582) 
nan

>  <Num_Resolved_Atoms>  (582) 
nan

>  <Num_Not_Resolved_Atoms>  (582) 
nan

$$$$
CHEMBL651
     RDKit          3D

  0  0  0  0  0  0  0  0  0  0999 V3000
M  V30 BEGIN CTAB
M  V30 COUNTS 50 51 0 0 0
M  V30 BEGIN ATOM
M  V30 1 C -0.577898 -4.151458 2.233875 0
M  V30 2 C 0.060090 -2.870627 2.690618 0
M  V30 3 C 0.733488 -2.111842 1.634948 0
M  V30 4 O 1.907140 -2.441808 1.396925 0
M  V30 5 C 0.156921 -0.969280 0.802346 0
M  V30 6 C 1.228527 -0.380276 -0.030018 0
M  V30 7 C 0.957970 0.746133 -0.923733 0
M  V30 8 C 0.462441 2.017504 -0.348531 0
M  V30 9 N 2.224940 1.065015 -1.603405 0
M  V30 10 C 2.758299 -0.020174 -2.354353 0
M  V30 11 C 3.199105 1.679700 -0.785215 0
M  V30 12 C -0.270574 0.040597 1.801798 0
M  V30 13 C 0.638597 0.270718 2.845787 0
M  V30 14 C 0.426575 1.153252 3.874752 0
M  V30 15 C -0.730930 1.867024 3.914330 0
M  V30 16 C -1.633695 1.666785 2.916237 0
M  V30 17 C -1.452618 0.789371 1.869052 0
M  V30 18 C -0.937445 -1.601232 0.062301 0
M  V30 19 C -2.123316 -1.884452 0.719108 0
M  V30 20 C -3.188361 -2.489686 0.088726 0
M  V30 21 C -3.133114 -2.851066 -1.244314 0
M  V30 22 C -1.953647 -2.579451 -1.932366 0
M  V30 23 C -0.920506 -1.972175 -1.250117 0
M  V30 24 H -0.198894 -5.051849 2.771335 0
M  V30 25 H -1.683073 -4.155881 2.460018 0
M  V30 26 H -0.394614 -4.310852 1.147885 0
M  V30 27 H 0.837213 -3.175257 3.453894 0
M  V30 28 H -0.682420 -2.310037 3.288377 0
M  V30 29 H 1.612240 -1.224048 -0.685585 0
M  V30 30 H 2.148788 -0.119916 0.570223 0
M  V30 31 H 0.278240 0.521048 -1.801635 0
M  V30 32 H 0.715089 2.242507 0.682503 0
M  V30 33 H 0.907221 2.869435 -0.950732 0
M  V30 34 H -0.632954 2.179932 -0.483079 0
M  V30 35 H 3.423278 0.437761 -3.144532 0
M  V30 36 H 2.011760 -0.615815 -2.887002 0
M  V30 37 H 3.472566 -0.619748 -1.737437 0
M  V30 38 H 3.016757 1.697681 0.298475 0
M  V30 39 H 4.210377 1.283866 -0.978970 0
M  V30 40 H 3.255068 2.762380 -1.097578 0
M  V30 41 H 1.597933 -0.269650 2.882570 0
M  V30 42 H 1.163591 1.292164 4.654569 0
M  V30 43 H -0.922633 2.566652 4.710472 0
M  V30 44 H -2.582919 2.203993 2.883608 0
M  V30 45 H -2.112634 0.580404 1.047933 0
M  V30 46 H -2.354946 -1.680165 1.745865 0
M  V30 47 H -4.137972 -2.736821 0.545108 0
M  V30 48 H -3.942615 -3.324804 -1.772437 0
M  V30 49 H -1.885166 -2.852311 -2.976721 0
M  V30 50 H -0.049747 -1.804683 -1.836613 0
M  V30 END ATOM
M  V30 BEGIN BOND
M  V30 1 1 1 2
M  V30 2 1 2 3
M  V30 3 2 3 4
M  V30 4 1 3 5
M  V30 5 1 5 6
M  V30 6 1 6 7
M  V30 7 1 7 8
M  V30 8 1 7 9
M  V30 9 1 9 10
M  V30 10 1 9 11
M  V30 11 1 5 12
M  V30 12 2 12 13
M  V30 13 1 13 14
M  V30 14 2 14 15
M  V30 15 1 15 16
M  V30 16 2 16 17
M  V30 17 1 5 18
M  V30 18 2 18 19
M  V30 19 1 19 20
M  V30 20 2 20 21
M  V30 21 1 21 22
M  V30 22 2 22 23
M  V30 23 1 17 12
M  V30 24 1 23 18
M  V30 25 1 1 24
M  V30 26 1 1 25
M  V30 27 1 1 26
M  V30 28 1 2 27
M  V30 29 1 2 28
M  V30 30 1 6 29
M  V30 31 1 6 30
M  V30 32 1 7 31
M  V30 33 1 8 32
M  V30 34 1 8 33
M  V30 35 1 8 34
M  V30 36 1 10 35
M  V30 37 1 10 36
M  V30 38 1 10 37
M  V30 39 1 11 38
M  V30 40 1 11 39
M  V30 41 1 11 40
M  V30 42 1 13 41
M  V30 43 1 14 42
M  V30 44 1 15 43
M  V30 45 1 16 44
M  V30 46 1 17 45
M  V30 47 1 19 46
M  V30 48 1 20 47
M  V30 49 1 21 48
M  V30 50 1 22 49
M  V30 51 1 23 50
M  V30 END BOND
M  V30 END CTAB
M  END
>  <Dataset>  (583) 
OralDrugs

>  <Ligand_Instance>  (583) 
nan

>  <PDB_ID>  (583) 
nan

>  <Standardized_SMILES>  (583) 
CCC(=O)C(CC(C)N(C)C)(c1ccccc1)c1ccccc1

>  <Name>  (583) 
Methadone

>  <Pocket>  (583) 
nan

>  <ATP_Site>  (583) 
nan

>  <Peripheral>  (583) 
nan

>  <Num_H_Atoms_ProtBoundConf>  (583) 
nan

>  <Num_Resolved_Atoms>  (583) 
nan

>  <Num_Not_Resolved_Atoms>  (583) 
nan

$$$$
CHEMBL1201201
     RDKit          3D

  0  0  0  0  0  0  0  0  0  0999 V3000
M  V30 BEGIN CTAB
M  V30 COUNTS 26 26 0 0 0
M  V30 BEGIN ATOM
M  V30 1 C -0.356792 2.332360 2.712349 0
M  V30 2 N -0.778487 0.953831 2.910720 0
M  V30 3 C -0.163594 0.063646 1.951821 0 CFG=1
M  V30 4 C -0.672100 -1.331236 2.252788 0
M  V30 5 C -0.497220 0.388785 0.536061 0
M  V30 6 C 0.198001 -0.599923 -0.330947 0
M  V30 7 C 1.471118 -0.388340 -0.818715 0
M  V30 8 C 2.165461 -1.268471 -1.626258 0
M  V30 9 C 1.520565 -2.457574 -1.967698 0
M  V30 10 C 0.238386 -2.737923 -1.513048 0
M  V30 11 C -0.359047 -1.806420 -0.723448 0
M  V30 12 H -0.822537 2.925763 3.538067 0
M  V30 13 H -0.736688 2.771231 1.767469 0
M  V30 14 H 0.742484 2.446574 2.834186 0
M  V30 15 H -0.408414 0.673502 3.846704 0
M  V30 16 H 0.937269 0.054991 2.087275 0
M  V30 17 H -0.086434 -2.098322 1.709161 0
M  V30 18 H -0.678737 -1.496709 3.348800 0
M  V30 19 H -1.723452 -1.410538 1.899162 0
M  V30 20 H -0.247470 1.417849 0.230505 0
M  V30 21 H -1.607901 0.243804 0.419627 0
M  V30 22 H 2.005039 0.524328 -0.575093 0
M  V30 23 H 3.163976 -1.064488 -1.988128 0
M  V30 24 H 2.034968 -3.161701 -2.594300 0
M  V30 25 H -0.205778 -3.660540 -1.804607 0
M  V30 26 H -1.356658 -2.051407 -0.384310 0
M  V30 END ATOM
M  V30 BEGIN BOND
M  V30 1 1 1 2
M  V30 2 1 2 3
M  V30 3 1 3 4
M  V30 4 1 3 5
M  V30 5 1 5 6
M  V30 6 2 6 7
M  V30 7 1 7 8
M  V30 8 2 8 9
M  V30 9 1 9 10
M  V30 10 2 10 11
M  V30 11 1 11 6
M  V30 12 1 1 12
M  V30 13 1 1 13
M  V30 14 1 1 14
M  V30 15 1 2 15
M  V30 16 1 3 16 CFG=3
M  V30 17 1 4 17
M  V30 18 1 4 18
M  V30 19 1 4 19
M  V30 20 1 5 20
M  V30 21 1 5 21
M  V30 22 1 7 22
M  V30 23 1 8 23
M  V30 24 1 9 24
M  V30 25 1 10 25
M  V30 26 1 11 26
M  V30 END BOND
M  V30 END CTAB
M  END
>  <Dataset>  (584) 
OralDrugs

>  <Ligand_Instance>  (584) 
nan

>  <PDB_ID>  (584) 
nan

>  <Standardized_SMILES>  (584) 
CN[C@@H](C)Cc1ccccc1

>  <Name>  (584) 
Methamphetamine

>  <Pocket>  (584) 
nan

>  <ATP_Site>  (584) 
nan

>  <Peripheral>  (584) 
nan

>  <Num_H_Atoms_ProtBoundConf>  (584) 
nan

>  <Num_Resolved_Atoms>  (584) 
nan

>  <Num_Not_Resolved_Atoms>  (584) 
nan

$$$$
CHEMBL1201264
     RDKit          3D

  0  0  0  0  0  0  0  0  0  0999 V3000
M  V30 BEGIN CTAB
M  V30 COUNTS 51 53 0 0 0
M  V30 BEGIN ATOM
M  V30 1 C 4.406816 -2.931044 0.746767 0
M  V30 2 C 3.753285 -2.551142 2.033533 0
M  V30 3 N 2.538446 -1.756032 1.865768 0 CHG=1 VAL=4
M  V30 4 C 1.562691 -2.618706 1.246380 0
M  V30 5 C 2.059679 -1.531706 3.231513 0
M  V30 6 C 2.975299 -0.683757 4.051945 0
M  V30 7 C 2.772700 -0.532789 1.171671 0
M  V30 8 C 1.980657 -0.394535 -0.114818 0
M  V30 9 O 0.605635 -0.454057 0.180474 0
M  V30 10 C -0.413938 -0.364517 -0.728633 0
M  V30 11 O 0.050782 -0.218700 -1.889077 0
M  V30 12 C -1.843401 -0.444255 -0.271271 0
M  V30 13 C -2.179518 0.638836 0.688762 0
M  V30 14 C -1.418681 0.760813 1.828047 0
M  V30 15 C -1.692660 1.759955 2.759693 0
M  V30 16 C -2.740268 2.642353 2.542293 0
M  V30 17 C -3.518104 2.528555 1.391622 0
M  V30 18 C -3.217771 1.516707 0.477666 0
M  V30 19 O -3.999521 1.431703 -0.640834 0
M  V30 20 C -3.793202 0.469300 -1.612374 0
M  V30 21 C -4.626366 0.451918 -2.710154 0
M  V30 22 C -4.418197 -0.505966 -3.673405 0
M  V30 23 C -3.381010 -1.416730 -3.505978 0
M  V30 24 C -2.554157 -1.390885 -2.405468 0
M  V30 25 C -2.762935 -0.429237 -1.438178 0
M  V30 26 H 4.114064 -3.960916 0.397738 0
M  V30 27 H 4.203927 -2.257767 -0.093507 0
M  V30 28 H 5.510660 -3.042180 0.954797 0
M  V30 29 H 4.454057 -2.071326 2.758521 0
M  V30 30 H 3.433470 -3.486689 2.546559 0
M  V30 31 H 1.557892 -2.587748 0.139967 0
M  V30 32 H 0.504965 -2.380860 1.558456 0
M  V30 33 H 1.713128 -3.687526 1.503878 0
M  V30 34 H 2.085911 -2.559057 3.696514 0
M  V30 35 H 1.008906 -1.229743 3.264844 0
M  V30 36 H 3.569167 -1.257280 4.808714 0
M  V30 37 H 2.358586 0.053384 4.626047 0
M  V30 38 H 3.710284 -0.089639 3.477916 0
M  V30 39 H 3.839920 -0.279502 1.015433 0
M  V30 40 H 2.372921 0.300364 1.820823 0
M  V30 41 H 2.152768 0.662313 -0.475804 0
M  V30 42 H 2.318756 -1.028913 -0.930757 0
M  V30 43 H -2.039288 -1.417494 0.243482 0
M  V30 44 H -0.585795 0.136825 2.100994 0
M  V30 45 H -1.193791 1.978903 3.685465 0
M  V30 46 H -3.032360 3.451591 3.206231 0
M  V30 47 H -4.342667 3.211053 1.205044 0
M  V30 48 H -5.433081 1.185924 -2.807425 0
M  V30 49 H -5.090767 -0.494730 -4.527103 0
M  V30 50 H -3.313154 -2.125422 -4.329835 0
M  V30 51 H -1.777036 -2.126356 -2.348279 0
M  V30 END ATOM
M  V30 BEGIN BOND
M  V30 1 1 1 2
M  V30 2 1 2 3
M  V30 3 1 3 4
M  V30 4 1 3 5
M  V30 5 1 5 6
M  V30 6 1 3 7
M  V30 7 1 7 8
M  V30 8 1 8 9
M  V30 9 1 9 10
M  V30 10 2 10 11
M  V30 11 1 10 12
M  V30 12 1 12 13
M  V30 13 2 13 14
M  V30 14 1 14 15
M  V30 15 2 15 16
M  V30 16 1 16 17
M  V30 17 2 17 18
M  V30 18 1 18 19
M  V30 19 1 19 20
M  V30 20 2 20 21
M  V30 21 1 21 22
M  V30 22 2 22 23
M  V30 23 1 23 24
M  V30 24 2 24 25
M  V30 25 1 25 12
M  V30 26 1 18 13
M  V30 27 1 25 20
M  V30 28 1 1 26
M  V30 29 1 1 27
M  V30 30 1 1 28
M  V30 31 1 2 29
M  V30 32 1 2 30
M  V30 33 1 4 31
M  V30 34 1 4 32
M  V30 35 1 4 33
M  V30 36 1 5 34
M  V30 37 1 5 35
M  V30 38 1 6 36
M  V30 39 1 6 37
M  V30 40 1 6 38
M  V30 41 1 7 39
M  V30 42 1 7 40
M  V30 43 1 8 41
M  V30 44 1 8 42
M  V30 45 1 12 43
M  V30 46 1 14 44
M  V30 47 1 15 45
M  V30 48 1 16 46
M  V30 49 1 17 47
M  V30 50 1 21 48
M  V30 51 1 22 49
M  V30 52 1 23 50
M  V30 53 1 24 51
M  V30 END BOND
M  V30 END CTAB
M  END
>  <Dataset>  (585) 
OralDrugs

>  <Ligand_Instance>  (585) 
nan

>  <PDB_ID>  (585) 
nan

>  <Standardized_SMILES>  (585) 
CC[N+](C)(CC)CCOC(=O)C1c2ccccc2Oc2ccccc21

>  <Name>  (585) 
Methantheline

>  <Pocket>  (585) 
nan

>  <ATP_Site>  (585) 
nan

>  <Peripheral>  (585) 
nan

>  <Num_H_Atoms_ProtBoundConf>  (585) 
nan

>  <Num_Resolved_Atoms>  (585) 
nan

>  <Num_Not_Resolved_Atoms>  (585) 
nan

$$$$
CHEMBL450
     RDKit          3D

  0  0  0  0  0  0  0  0  0  0999 V3000
M  V30 BEGIN CTAB
M  V30 COUNTS 28 28 0 0 0
M  V30 BEGIN ATOM
M  V30 1 C 1.044600 -1.038038 3.658781 0
M  V30 2 C 1.580002 -0.978750 2.244608 0
M  V30 3 C 0.501762 -0.799059 1.232989 0
M  V30 4 C -0.315716 0.438923 1.374639 0
M  V30 5 C 0.415392 1.720231 1.284970 0
M  V30 6 C -0.414678 -1.972140 1.317421 0
M  V30 7 O -0.399311 -2.796213 2.291191 0
M  V30 8 N -1.376772 -2.232105 0.283153 0
M  V30 9 C -1.053972 -1.760594 -1.038470 0
M  V30 10 O -1.885913 -1.982658 -1.944680 0
M  V30 11 N 0.185871 -1.075890 -1.224018 0
M  V30 12 C 0.411512 -0.644512 -2.589897 0
M  V30 13 C 1.089568 -0.859145 -0.133342 0
M  V30 14 O 2.304987 -0.743302 -0.479981 0
M  V30 15 H 1.346689 -1.977862 4.179404 0
M  V30 16 H 1.493873 -0.214944 4.275917 0
M  V30 17 H -0.039607 -0.906835 3.620859 0
M  V30 18 H 2.033546 -1.974883 2.031808 0
M  V30 19 H 2.417031 -0.270833 2.177262 0
M  V30 20 H -0.869267 0.449914 2.338422 0
M  V30 21 H -1.114591 0.413347 0.604114 0
M  V30 22 H 1.420661 1.663412 0.836792 0
M  V30 23 H 0.522240 2.224350 2.290750 0
M  V30 24 H -0.162993 2.456205 0.687762 0
M  V30 25 H -2.255121 -2.747714 0.547240 0
M  V30 26 H -0.467883 -0.045791 -2.899670 0
M  V30 27 H 1.333404 -0.051472 -2.620316 0
M  V30 28 H 0.460290 -1.546628 -3.245099 0
M  V30 END ATOM
M  V30 BEGIN BOND
M  V30 1 1 1 2
M  V30 2 1 2 3
M  V30 3 1 3 4
M  V30 4 1 4 5
M  V30 5 1 3 6
M  V30 6 2 6 7
M  V30 7 1 6 8
M  V30 8 1 8 9
M  V30 9 2 9 10
M  V30 10 1 9 11
M  V30 11 1 11 12
M  V30 12 1 11 13
M  V30 13 2 13 14
M  V30 14 1 13 3
M  V30 15 1 1 15
M  V30 16 1 1 16
M  V30 17 1 1 17
M  V30 18 1 2 18
M  V30 19 1 2 19
M  V30 20 1 4 20
M  V30 21 1 4 21
M  V30 22 1 5 22
M  V30 23 1 5 23
M  V30 24 1 5 24
M  V30 25 1 8 25
M  V30 26 1 12 26
M  V30 27 1 12 27
M  V30 28 1 12 28
M  V30 END BOND
M  V30 END CTAB
M  END
>  <Dataset>  (586) 
OralDrugs

>  <Ligand_Instance>  (586) 
nan

>  <PDB_ID>  (586) 
nan

>  <Standardized_SMILES>  (586) 
CCC1(CC)C(=O)NC(=O)N(C)C1=O

>  <Name>  (586) 
Metharbital

>  <Pocket>  (586) 
nan

>  <ATP_Site>  (586) 
nan

>  <Peripheral>  (586) 
nan

>  <Num_H_Atoms_ProtBoundConf>  (586) 
nan

>  <Num_Resolved_Atoms>  (586) 
nan

>  <Num_Not_Resolved_Atoms>  (586) 
nan

$$$$
CHEMBL19
     RDKit          3D

  0  0  0  0  0  0  0  0  0  0999 V3000
M  V30 BEGIN CTAB
M  V30 COUNTS 22 22 0 0 0
M  V30 BEGIN ATOM
M  V30 1 C 0.488550 0.020791 4.714986 0
M  V30 2 C -0.392718 -0.685155 3.727837 0
M  V30 3 O -1.643196 -0.672003 4.013482 0
M  V30 4 N 0.523129 -1.158216 2.754179 0
M  V30 5 C 0.653969 -0.660257 1.561842 0
M  V30 6 S 1.797467 -1.238224 0.322954 0
M  V30 7 C 1.181985 0.083441 -0.897049 0
M  V30 8 S 1.844657 0.252771 -2.556610 0
M  V30 9 N 0.938902 -0.705064 -3.653452 0
M  V30 10 O 3.288130 -0.197396 -2.541338 0
M  V30 11 O 1.856355 1.696372 -2.857119 0
M  V30 12 N 0.419498 0.542024 -0.207601 0
M  V30 13 N 0.002000 0.355697 0.986520 0
M  V30 14 C -1.038086 1.130473 1.638588 0
M  V30 15 H 1.080716 0.828857 4.249562 0
M  V30 16 H 1.181681 -0.697773 5.176067 0
M  V30 17 H -0.122243 0.487109 5.539829 0
M  V30 18 H 0.879784 -1.665582 -3.217643 0
M  V30 19 H -0.053428 -0.340862 -3.631802 0
M  V30 20 H -1.258641 2.100693 1.095699 0
M  V30 21 H -1.967399 0.528950 1.646307 0
M  V30 22 H -0.774586 1.485771 2.651019 0
M  V30 END ATOM
M  V30 BEGIN BOND
M  V30 1 1 1 2
M  V30 2 2 2 3
M  V30 3 1 2 4
M  V30 4 2 4 5
M  V30 5 1 5 6
M  V30 6 1 6 7
M  V30 7 1 7 8
M  V30 8 1 8 9
M  V30 9 2 8 10
M  V30 10 2 8 11
M  V30 11 2 7 12
M  V30 12 1 12 13
M  V30 13 1 13 14
M  V30 14 1 13 5
M  V30 15 1 1 15
M  V30 16 1 1 16
M  V30 17 1 1 17
M  V30 18 1 9 18
M  V30 19 1 9 19
M  V30 20 1 14 20
M  V30 21 1 14 21
M  V30 22 1 14 22
M  V30 END BOND
M  V30 END CTAB
M  END
>  <Dataset>  (587) 
OralDrugs

>  <Ligand_Instance>  (587) 
nan

>  <PDB_ID>  (587) 
nan

>  <Standardized_SMILES>  (587) 
CC(=O)/N=c1/sc(S(N)(=O)=O)nn1C

>  <Name>  (587) 
Methazolamide

>  <Pocket>  (587) 
nan

>  <ATP_Site>  (587) 
nan

>  <Peripheral>  (587) 
nan

>  <Num_H_Atoms_ProtBoundConf>  (587) 
nan

>  <Num_Resolved_Atoms>  (587) 
nan

>  <Num_Not_Resolved_Atoms>  (587) 
nan

$$$$
CHEMBL1200959
     RDKit          3D

  0  0  0  0  0  0  0  0  0  0999 V3000
M  V30 BEGIN CTAB
M  V30 COUNTS 41 44 0 0 0
M  V30 BEGIN ATOM
M  V30 1 C 0.864274 -3.994540 2.778853 0
M  V30 2 N 0.265563 -3.137969 1.790307 0
M  V30 3 C -0.576698 -3.804597 0.851678 0
M  V30 4 C -0.342130 -3.212190 -0.496317 0
M  V30 5 C 0.404486 -1.911396 -0.159706 0
M  V30 6 C -0.682431 -0.889996 0.121886 0
M  V30 7 N -0.103114 0.374847 0.435306 0
M  V30 8 C 0.470539 1.177938 -0.587800 0
M  V30 9 C 0.403726 0.798588 -1.916125 0
M  V30 10 C 0.896476 1.500479 -2.984326 0
M  V30 11 C 1.526658 2.710260 -2.742117 0
M  V30 12 C 1.617894 3.136458 -1.415062 0
M  V30 13 C 1.098834 2.367498 -0.439236 0
M  V30 14 S 1.296178 3.067985 1.173654 0
M  V30 15 C 0.498956 1.944023 2.274288 0
M  V30 16 C 0.527375 2.346245 3.559050 0
M  V30 17 C -0.062882 1.538490 4.539566 0
M  V30 18 C -0.650994 0.355205 4.129019 0
M  V30 19 C -0.630025 0.027769 2.787085 0
M  V30 20 C -0.059170 0.796322 1.791447 0
M  V30 21 C 1.169470 -2.343133 1.050051 0
M  V30 22 H 0.081315 -4.696826 3.133457 0
M  V30 23 H 1.707595 -4.533027 2.297194 0
M  V30 24 H 1.214012 -3.322724 3.606525 0
M  V30 25 H -1.661889 -3.764159 1.106694 0
M  V30 26 H -0.313215 -4.893278 0.890540 0
M  V30 27 H -1.281138 -2.977778 -1.044990 0
M  V30 28 H 0.352467 -3.837290 -1.064106 0
M  V30 29 H 1.032748 -1.622936 -0.996834 0
M  V30 30 H -1.467335 -1.274604 0.772344 0
M  V30 31 H -1.200813 -0.923464 -0.889729 0
M  V30 32 H -0.075602 -0.108367 -2.256218 0
M  V30 33 H 0.843293 1.201212 -4.020484 0
M  V30 34 H 1.928051 3.292064 -3.559477 0
M  V30 35 H 2.120583 4.087291 -1.298803 0
M  V30 36 H 0.967675 3.254040 3.946429 0
M  V30 37 H -0.062537 1.823909 5.583088 0
M  V30 38 H -1.094462 -0.237992 4.917041 0
M  V30 39 H -1.117159 -0.899137 2.627113 0
M  V30 40 H 1.657007 -1.525718 1.596688 0
M  V30 41 H 1.989256 -2.985551 0.667110 0
M  V30 END ATOM
M  V30 BEGIN BOND
M  V30 1 1 1 2
M  V30 2 1 2 3
M  V30 3 1 3 4
M  V30 4 1 4 5
M  V30 5 1 5 6
M  V30 6 1 6 7
M  V30 7 1 7 8
M  V30 8 2 8 9
M  V30 9 1 9 10
M  V30 10 2 10 11
M  V30 11 1 11 12
M  V30 12 2 12 13
M  V30 13 1 13 14
M  V30 14 1 14 15
M  V30 15 2 15 16
M  V30 16 1 16 17
M  V30 17 2 17 18
M  V30 18 1 18 19
M  V30 19 2 19 20
M  V30 20 1 5 21
M  V30 21 1 21 2
M  V30 22 1 20 7
M  V30 23 1 13 8
M  V30 24 1 20 15
M  V30 25 1 1 22
M  V30 26 1 1 23
M  V30 27 1 1 24
M  V30 28 1 3 25
M  V30 29 1 3 26
M  V30 30 1 4 27
M  V30 31 1 4 28
M  V30 32 1 5 29
M  V30 33 1 6 30
M  V30 34 1 6 31
M  V30 35 1 9 32
M  V30 36 1 10 33
M  V30 37 1 11 34
M  V30 38 1 12 35
M  V30 39 1 16 36
M  V30 40 1 17 37
M  V30 41 1 18 38
M  V30 42 1 19 39
M  V30 43 1 21 40
M  V30 44 1 21 41
M  V30 END BOND
M  V30 END CTAB
M  END
>  <Dataset>  (588) 
OralDrugs

>  <Ligand_Instance>  (588) 
nan

>  <PDB_ID>  (588) 
nan

>  <Standardized_SMILES>  (588) 
CN1CCC(CN2c3ccccc3Sc3ccccc32)C1

>  <Name>  (588) 
Methdilazine

>  <Pocket>  (588) 
nan

>  <ATP_Site>  (588) 
nan

>  <Peripheral>  (588) 
nan

>  <Num_H_Atoms_ProtBoundConf>  (588) 
nan

>  <Num_Resolved_Atoms>  (588) 
nan

>  <Num_Not_Resolved_Atoms>  (588) 
nan

$$$$
CHEMBL1201270
     RDKit          3D

  0  0  0  0  0  0  0  0  0  0999 V3000
M  V30 BEGIN CTAB
M  V30 COUNTS 22 24 0 0 0
M  V30 BEGIN ATOM
M  V30 1 C -0.644900 -0.466344 2.091641 0
M  V30 2 N -1.035986 0.364261 0.965895 0
M  V30 3 C -0.275834 1.592449 1.033646 0
M  V30 4 N 1.133340 1.283342 1.015205 0
M  V30 5 C 1.510710 0.450917 2.130781 0
M  V30 6 N 0.762041 -0.799630 2.062465 0
M  V30 7 C 1.025865 -1.464145 0.804117 0
M  V30 8 N 0.713732 -0.598597 -0.330810 0
M  V30 9 C -0.701650 -0.300012 -0.282378 0
M  V30 10 C 1.495118 0.610960 -0.212040 0
M  V30 11 H -1.236375 -1.396901 2.105469 0
M  V30 12 H -0.822473 0.100042 3.024229 0
M  V30 13 H -0.471583 2.251179 0.163495 0
M  V30 14 H -0.489774 2.079985 1.998291 0
M  V30 15 H 2.606059 0.279532 2.085236 0
M  V30 16 H 1.251612 0.954016 3.075027 0
M  V30 17 H 0.327065 -2.319932 0.730888 0
M  V30 18 H 2.048174 -1.869313 0.732579 0
M  V30 19 H -0.909104 0.409945 -1.104911 0
M  V30 20 H -1.278553 -1.236474 -0.390397 0
M  V30 21 H 1.316773 1.252625 -1.087676 0
M  V30 22 H 2.562267 0.314511 -0.094495 0
M  V30 END ATOM
M  V30 BEGIN BOND
M  V30 1 1 1 2
M  V30 2 1 2 3
M  V30 3 1 3 4
M  V30 4 1 4 5
M  V30 5 1 5 6
M  V30 6 1 6 7
M  V30 7 1 7 8
M  V30 8 1 8 9
M  V30 9 1 8 10
M  V30 10 1 6 1
M  V30 11 1 9 2
M  V30 12 1 10 4
M  V30 13 1 1 11
M  V30 14 1 1 12
M  V30 15 1 3 13
M  V30 16 1 3 14
M  V30 17 1 5 15
M  V30 18 1 5 16
M  V30 19 1 7 17
M  V30 20 1 7 18
M  V30 21 1 9 19
M  V30 22 1 9 20
M  V30 23 1 10 21
M  V30 24 1 10 22
M  V30 END BOND
M  V30 END CTAB
M  END
>  <Dataset>  (589) 
OralDrugs

>  <Ligand_Instance>  (589) 
nan

>  <PDB_ID>  (589) 
nan

>  <Standardized_SMILES>  (589) 
C1N2CN3CN1CN(C2)C3

>  <Name>  (589) 
Methenamine

>  <Pocket>  (589) 
nan

>  <ATP_Site>  (589) 
nan

>  <Peripheral>  (589) 
nan

>  <Num_H_Atoms_ProtBoundConf>  (589) 
nan

>  <Num_Resolved_Atoms>  (589) 
nan

>  <Num_Not_Resolved_Atoms>  (589) 
nan

$$$$
CHEMBL1201104
     RDKit          3D

  0  0  0  0  0  0  0  0  0  0999 V3000
M  V30 BEGIN CTAB
M  V30 COUNTS 22 22 0 0 0
M  V30 BEGIN ATOM
M  V30 1 O 0.827315 -1.500812 3.353562 0
M  V30 2 C 1.947101 -0.999796 3.692531 0
M  V30 3 O 2.591059 -1.716850 4.662514 0
M  V30 4 C 2.414423 0.248384 3.032800 0
M  V30 5 N 1.403622 0.644991 2.072264 0
M  V30 6 C 1.060731 -0.221989 1.018782 0
M  V30 7 O 1.581622 -1.363810 0.832662 0
M  V30 8 C 0.052600 0.147467 0.041861 0
M  V30 9 C -0.283618 -0.704076 -0.992159 0
M  V30 10 C -1.236588 -0.408252 -1.954416 0
M  V30 11 C -1.888552 0.796270 -1.884632 0
M  V30 12 C -1.587082 1.691448 -0.861838 0
M  V30 13 C -0.628102 1.333552 0.062749 0
M  V30 14 H 2.076791 -2.003473 5.491669 0
M  V30 15 H 3.348346 -0.034542 2.487402 0
M  V30 16 H 2.699588 1.038456 3.724664 0
M  V30 17 H 0.980136 1.564557 2.217219 0
M  V30 18 H 0.195499 -1.675914 -1.106391 0
M  V30 19 H -1.487802 -1.075106 -2.749256 0
M  V30 20 H -2.637811 1.049411 -2.626271 0
M  V30 21 H -2.110794 2.627764 -0.828481 0
M  V30 22 H -0.431959 2.054737 0.829023 0
M  V30 END ATOM
M  V30 BEGIN BOND
M  V30 1 2 1 2
M  V30 2 1 2 3
M  V30 3 1 2 4
M  V30 4 1 4 5
M  V30 5 1 5 6
M  V30 6 2 6 7
M  V30 7 1 6 8
M  V30 8 2 8 9
M  V30 9 1 9 10
M  V30 10 2 10 11
M  V30 11 1 11 12
M  V30 12 2 12 13
M  V30 13 1 13 8
M  V30 14 1 3 14
M  V30 15 1 4 15
M  V30 16 1 4 16
M  V30 17 1 5 17
M  V30 18 1 9 18
M  V30 19 1 10 19
M  V30 20 1 11 20
M  V30 21 1 12 21
M  V30 22 1 13 22
M  V30 END BOND
M  V30 END CTAB
M  END
>  <Dataset>  (590) 
OralDrugs

>  <Ligand_Instance>  (590) 
nan

>  <PDB_ID>  (590) 
nan

>  <Standardized_SMILES>  (590) 
O=C(O)CNC(=O)c1ccccc1

>  <Name>  (590) 
Methenamine Hippurate

>  <Pocket>  (590) 
nan

>  <ATP_Site>  (590) 
nan

>  <Peripheral>  (590) 
nan

>  <Num_H_Atoms_ProtBoundConf>  (590) 
nan

>  <Num_Resolved_Atoms>  (590) 
nan

>  <Num_Not_Resolved_Atoms>  (590) 
nan

$$$$
CHEMBL1515
     RDKit          3D

  0  0  0  0  0  0  0  0  0  0999 V3000
M  V30 BEGIN CTAB
M  V30 COUNTS 13 13 0 0 0
M  V30 BEGIN ATOM
M  V30 1 C -0.133993 0.688619 0.795127 0
M  V30 2 N 0.945979 -0.289322 0.785331 0
M  V30 3 C 1.105070 -1.350066 1.600148 0
M  V30 4 C 2.246960 -2.052654 1.294669 0
M  V30 5 N 2.776404 -1.379764 0.263785 0
M  V30 6 C 1.986893 -0.311144 -0.043999 0
M  V30 7 S 2.345973 0.836611 -1.358810 0
M  V30 8 H 0.198099 1.700669 1.085795 0
M  V30 9 H -0.606909 0.626606 -0.193999 0
M  V30 10 H -0.914859 0.387412 1.525330 0
M  V30 11 H 0.394579 -1.577425 2.381943 0
M  V30 12 H 2.613321 -2.945556 1.791019 0
M  V30 13 H 2.085147 0.239717 -2.626191 0
M  V30 END ATOM
M  V30 BEGIN BOND
M  V30 1 1 1 2
M  V30 2 1 2 3
M  V30 3 2 3 4
M  V30 4 1 4 5
M  V30 5 2 5 6
M  V30 6 1 6 7
M  V30 7 1 6 2
M  V30 8 1 1 8
M  V30 9 1 1 9
M  V30 10 1 1 10
M  V30 11 1 3 11
M  V30 12 1 4 12
M  V30 13 1 7 13
M  V30 END BOND
M  V30 END CTAB
M  END
>  <Dataset>  (591) 
OralDrugs

>  <Ligand_Instance>  (591) 
nan

>  <PDB_ID>  (591) 
nan

>  <Standardized_SMILES>  (591) 
Cn1ccnc1S

>  <Name>  (591) 
Methimazole

>  <Pocket>  (591) 
nan

>  <ATP_Site>  (591) 
nan

>  <Peripheral>  (591) 
nan

>  <Num_H_Atoms_ProtBoundConf>  (591) 
nan

>  <Num_Resolved_Atoms>  (591) 
nan

>  <Num_Not_Resolved_Atoms>  (591) 
nan

$$$$
CHEMBL1201342
     RDKit          3D

  0  0  0  0  0  0  0  0  0  0999 V3000
M  V30 BEGIN CTAB
M  V30 COUNTS 45 48 0 0 0
M  V30 BEGIN ATOM
M  V30 1 C -3.131373 -2.855543 2.010034 0
M  V30 2 N -3.025475 -2.259616 0.702460 0
M  V30 3 C -2.712941 -3.129143 -0.358211 0
M  V30 4 C -1.376720 -2.966755 -1.015971 0
M  V30 5 C -0.936885 -1.499693 -1.054954 0
M  V30 6 C -1.005972 -1.030477 0.356859 0
M  V30 7 C -0.426708 0.296577 0.642937 0
M  V30 8 C 1.035291 0.478756 0.346103 0
M  V30 9 C 1.476161 1.874011 0.685551 0
M  V30 10 C 1.626742 2.821982 -0.334722 0
M  V30 11 C 2.021636 4.130332 -0.150675 0
M  V30 12 C 2.279950 4.500395 1.149299 0
M  V30 13 C 2.154358 3.625893 2.203472 0
M  V30 14 C 1.755722 2.329204 1.958873 0
M  V30 15 S 1.536315 1.034342 3.208253 0
M  V30 16 C 2.256827 -0.416704 2.394403 0
M  V30 17 C 3.065164 -1.348537 3.004291 0
M  V30 18 C 3.554127 -2.406306 2.277080 0
M  V30 19 C 3.219955 -2.506743 0.947462 0
M  V30 20 C 2.417480 -1.574408 0.358291 0
M  V30 21 C 1.896478 -0.478936 1.063446 0
M  V30 22 C -2.493615 -0.940657 0.677562 0
M  V30 23 H -2.104003 -2.931571 2.427931 0
M  V30 24 H -3.700761 -2.127623 2.649914 0
M  V30 25 H -3.610220 -3.830652 1.917917 0
M  V30 26 H -3.484976 -3.169739 -1.171988 0
M  V30 27 H -2.725933 -4.180524 0.056357 0
M  V30 28 H -0.620529 -3.518093 -0.420802 0
M  V30 29 H -1.416409 -3.378764 -2.051741 0
M  V30 30 H 0.024509 -1.439274 -1.553216 0
M  V30 31 H -1.752818 -0.986009 -1.622832 0
M  V30 32 H -0.626406 -1.852081 0.995285 0
M  V30 33 H -0.584782 0.485444 1.734722 0
M  V30 34 H -1.034144 1.075633 0.140386 0
M  V30 35 H 1.169185 0.354975 -0.747649 0
M  V30 36 H 1.414096 2.501200 -1.365719 0
M  V30 37 H 2.110420 4.791730 -1.001041 0
M  V30 38 H 2.595753 5.519587 1.362604 0
M  V30 39 H 2.342180 3.860000 3.233628 0
M  V30 40 H 3.243242 -1.145417 4.044687 0
M  V30 41 H 4.181767 -3.108719 2.797567 0
M  V30 42 H 3.640268 -3.363042 0.439607 0
M  V30 43 H 2.232951 -1.769785 -0.689184 0
M  V30 44 H -2.698813 -0.462209 1.648783 0
M  V30 45 H -2.952263 -0.376041 -0.176912 0
M  V30 END ATOM
M  V30 BEGIN BOND
M  V30 1 1 1 2
M  V30 2 1 2 3
M  V30 3 1 3 4
M  V30 4 1 4 5
M  V30 5 1 5 6
M  V30 6 1 6 7
M  V30 7 1 7 8
M  V30 8 1 8 9
M  V30 9 2 9 10
M  V30 10 1 10 11
M  V30 11 2 11 12
M  V30 12 1 12 13
M  V30 13 2 13 14
M  V30 14 1 14 15
M  V30 15 1 15 16
M  V30 16 2 16 17
M  V30 17 1 17 18
M  V30 18 2 18 19
M  V30 19 1 19 20
M  V30 20 2 20 21
M  V30 21 1 6 22
M  V30 22 1 22 2
M  V30 23 1 21 8
M  V30 24 1 14 9
M  V30 25 1 21 16
M  V30 26 1 1 23
M  V30 27 1 1 24
M  V30 28 1 1 25
M  V30 29 1 3 26
M  V30 30 1 3 27
M  V30 31 1 4 28
M  V30 32 1 4 29
M  V30 33 1 5 30
M  V30 34 1 5 31
M  V30 35 1 6 32
M  V30 36 1 7 33
M  V30 37 1 7 34
M  V30 38 1 8 35
M  V30 39 1 10 36
M  V30 40 1 11 37
M  V30 41 1 12 38
M  V30 42 1 13 39
M  V30 43 1 17 40
M  V30 44 1 18 41
M  V30 45 1 19 42
M  V30 46 1 20 43
M  V30 47 1 22 44
M  V30 48 1 22 45
M  V30 END BOND
M  V30 END CTAB
M  END
>  <Dataset>  (592) 
OralDrugs

>  <Ligand_Instance>  (592) 
nan

>  <PDB_ID>  (592) 
nan

>  <Standardized_SMILES>  (592) 
CN1CCCC(CC2c3ccccc3Sc3ccccc32)C1

>  <Name>  (592) 
Methixene

>  <Pocket>  (592) 
nan

>  <ATP_Site>  (592) 
nan

>  <Peripheral>  (592) 
nan

>  <Num_H_Atoms_ProtBoundConf>  (592) 
nan

>  <Num_Resolved_Atoms>  (592) 
nan

>  <Num_Not_Resolved_Atoms>  (592) 
nan

$$$$
CHEMBL1201117
     RDKit          3D

  0  0  0  0  0  0  0  0  0  0999 V3000
M  V30 BEGIN CTAB
M  V30 COUNTS 32 32 0 0 0
M  V30 BEGIN ATOM
M  V30 1 C -2.018390 -4.268223 1.762843 0
M  V30 2 O -1.296279 -3.196411 1.256012 0
M  V30 3 C 0.043877 -2.967318 1.450456 0
M  V30 4 C 0.634462 -3.960117 2.241141 0
M  V30 5 C 1.976824 -3.903987 2.547649 0
M  V30 6 C 2.716813 -2.850057 2.056877 0
M  V30 7 C 2.100506 -1.897483 1.285233 0
M  V30 8 C 0.771365 -1.886818 0.939738 0
M  V30 9 O -0.048937 -1.085465 0.216767 0
M  V30 10 C 0.265835 0.087919 -0.431496 0
M  V30 11 C 0.742934 1.232108 0.424496 0
M  V30 12 O -0.226923 1.582092 1.354070 0
M  V30 13 C 1.011379 2.410823 -0.486411 0
M  V30 14 O -0.111421 2.808206 -1.203180 0
M  V30 15 C -1.288132 3.302403 -0.743631 0
M  V30 16 N -2.237857 3.601767 -1.757749 0
M  V30 17 O -1.587139 3.504763 0.441874 0
M  V30 18 H -1.564927 -5.214746 1.384664 0
M  V30 19 H -1.838233 -4.281681 2.877808 0
M  V30 20 H -3.090411 -4.220570 1.582122 0
M  V30 21 H 0.118865 -4.807621 2.655646 0
M  V30 22 H 2.541114 -4.600128 3.140667 0
M  V30 23 H 3.770300 -2.702176 2.230446 0
M  V30 24 H 2.641716 -1.063917 0.869980 0
M  V30 25 H -0.648971 0.462228 -0.950499 0
M  V30 26 H 1.073456 -0.117284 -1.192396 0
M  V30 27 H 1.671019 1.023138 0.995045 0
M  V30 28 H -0.191590 1.063970 2.181348 0
M  V30 29 H 1.803527 2.117277 -1.206659 0
M  V30 30 H 1.431891 3.268377 0.109731 0
M  V30 31 H -2.791736 4.343213 -2.256611 0
M  V30 32 H -2.677051 2.871420 -2.368608 0
M  V30 END ATOM
M  V30 BEGIN BOND
M  V30 1 1 1 2
M  V30 2 1 2 3
M  V30 3 2 3 4
M  V30 4 1 4 5
M  V30 5 2 5 6
M  V30 6 1 6 7
M  V30 7 2 7 8
M  V30 8 1 8 9
M  V30 9 1 9 10
M  V30 10 1 10 11
M  V30 11 1 11 12
M  V30 12 1 11 13
M  V30 13 1 13 14
M  V30 14 1 14 15
M  V30 15 1 15 16
M  V30 16 2 15 17
M  V30 17 1 8 3
M  V30 18 1 1 18
M  V30 19 1 1 19
M  V30 20 1 1 20
M  V30 21 1 4 21
M  V30 22 1 5 22
M  V30 23 1 6 23
M  V30 24 1 7 24
M  V30 25 1 10 25
M  V30 26 1 10 26
M  V30 27 1 11 27
M  V30 28 1 12 28
M  V30 29 1 13 29
M  V30 30 1 13 30
M  V30 31 1 16 31
M  V30 32 1 16 32
M  V30 END BOND
M  V30 END CTAB
M  END
>  <Dataset>  (593) 
OralDrugs

>  <Ligand_Instance>  (593) 
nan

>  <PDB_ID>  (593) 
nan

>  <Standardized_SMILES>  (593) 
COc1ccccc1OCC(O)COC(N)=O

>  <Name>  (593) 
Methocarbamol

>  <Pocket>  (593) 
nan

>  <ATP_Site>  (593) 
nan

>  <Peripheral>  (593) 
nan

>  <Num_H_Atoms_ProtBoundConf>  (593) 
nan

>  <Num_Resolved_Atoms>  (593) 
nan

>  <Num_Not_Resolved_Atoms>  (593) 
nan

$$$$
CHEMBL34259
     RDKit          3D

  0  0  0  0  0  0  0  0  0  0999 V3000
M  V30 BEGIN CTAB
M  V30 COUNTS 55 57 0 0 0
M  V30 BEGIN ATOM
M  V30 1 C 2.378210 0.092091 3.333681 0
M  V30 2 N 1.377708 0.841011 2.648841 0
M  V30 3 C 1.776225 2.231506 2.586965 0
M  V30 4 C 3.082847 2.352620 1.849594 0
M  V30 5 C 4.341900 2.310456 2.461991 0
M  V30 6 N 5.452014 2.427561 1.711110 0
M  V30 7 C 5.400036 2.585823 0.376331 0
M  V30 8 N 6.495732 2.705517 -0.401876 0
M  V30 9 C 6.383703 2.863708 -1.751326 0
M  V30 10 N 7.535525 2.991285 -2.584155 0
M  V30 11 N 5.174595 2.905406 -2.349595 0
M  V30 12 C 4.027606 2.790840 -1.624911 0
M  V30 13 N 2.733585 2.833495 -2.247912 0
M  V30 14 C 4.164978 2.630066 -0.248473 0
M  V30 15 N 3.061426 2.511915 0.512579 0
M  V30 16 C 0.180002 0.301680 2.111092 0
M  V30 17 C -0.098061 -1.035067 2.220335 0
M  V30 18 C -1.244612 -1.600647 1.715649 0
M  V30 19 C -2.195750 -0.834644 1.058403 0
M  V30 20 C -3.447258 -1.337904 0.484758 0
M  V30 21 O -4.270862 -0.568215 -0.103405 0
M  V30 22 N -3.855403 -2.692083 0.525281 0
M  V30 23 C -5.090268 -3.151011 -0.048289 0 CFG=1
M  V30 24 C -4.881817 -4.211618 -1.107055 0
M  V30 25 C -4.183668 -5.385059 -0.456608 0
M  V30 26 C -3.961127 -6.451615 -1.460802 0
M  V30 27 O -4.263114 -6.480362 -2.682105 0
M  V30 28 O -3.324293 -7.613550 -1.025589 0
M  V30 29 C -6.006209 -3.728441 0.966594 0
M  V30 30 O -7.143370 -4.181847 0.626465 0
M  V30 31 O -5.949098 -3.928689 2.338037 0
M  V30 32 C -1.939783 0.515314 0.934772 0
M  V30 33 C -0.768442 1.043209 1.460057 0
M  V30 34 H 3.362907 0.089998 2.821089 0
M  V30 35 H 2.153174 -0.952069 3.556197 0
M  V30 36 H 2.552102 0.584377 4.335464 0
M  V30 37 H 1.062355 2.850102 2.021431 0
M  V30 38 H 1.906756 2.672178 3.597704 0
M  V30 39 H 4.352900 2.182536 3.535722 0
M  V30 40 H 8.383442 3.618090 -2.629351 0
M  V30 41 H 7.696966 2.348852 -3.404399 0
M  V30 42 H 2.271146 1.928789 -2.523817 0
M  V30 43 H 2.630812 3.888827 -2.236359 0
M  V30 44 H 0.526724 -1.748177 2.692161 0
M  V30 45 H -1.494262 -2.649063 1.784431 0
M  V30 46 H -3.223425 -3.373970 0.995368 0
M  V30 47 H -5.629366 -2.263189 -0.492536 0
M  V30 48 H -5.887234 -4.517878 -1.449162 0
M  V30 49 H -4.291965 -3.747483 -1.897348 0
M  V30 50 H -3.191969 -5.108235 -0.059472 0
M  V30 51 H -4.772686 -5.801022 0.383333 0
M  V30 52 H -3.508760 -8.511335 -1.453555 0
M  V30 53 H -6.570392 -3.410459 2.961951 0
M  V30 54 H -2.670840 1.150582 0.420684 0
M  V30 55 H -0.656259 2.094861 1.317278 0
M  V30 END ATOM
M  V30 BEGIN BOND
M  V30 1 1 1 2
M  V30 2 1 2 3
M  V30 3 1 3 4
M  V30 4 2 4 5
M  V30 5 1 5 6
M  V30 6 2 6 7
M  V30 7 1 7 8
M  V30 8 2 8 9
M  V30 9 1 9 10
M  V30 10 1 9 11
M  V30 11 2 11 12
M  V30 12 1 12 13
M  V30 13 1 12 14
M  V30 14 2 14 15
M  V30 15 1 2 16
M  V30 16 2 16 17
M  V30 17 1 17 18
M  V30 18 2 18 19
M  V30 19 1 19 20
M  V30 20 2 20 21
M  V30 21 1 20 22
M  V30 22 1 22 23
M  V30 23 1 23 24
M  V30 24 1 24 25
M  V30 25 1 25 26
M  V30 26 2 26 27
M  V30 27 1 26 28
M  V30 28 1 23 29
M  V30 29 2 29 30
M  V30 30 1 29 31
M  V30 31 1 19 32
M  V30 32 2 32 33
M  V30 33 1 15 4
M  V30 34 1 33 16
M  V30 35 1 14 7
M  V30 36 1 1 34
M  V30 37 1 1 35
M  V30 38 1 1 36
M  V30 39 1 3 37
M  V30 40 1 3 38
M  V30 41 1 5 39
M  V30 42 1 10 40
M  V30 43 1 10 41
M  V30 44 1 13 42
M  V30 45 1 13 43
M  V30 46 1 17 44
M  V30 47 1 18 45
M  V30 48 1 22 46
M  V30 49 1 23 47 CFG=3
M  V30 50 1 24 48
M  V30 51 1 24 49
M  V30 52 1 25 50
M  V30 53 1 25 51
M  V30 54 1 28 52
M  V30 55 1 31 53
M  V30 56 1 32 54
M  V30 57 1 33 55
M  V30 END BOND
M  V30 END CTAB
M  END
>  <Dataset>  (594) 
OralDrugs

>  <Ligand_Instance>  (594) 
nan

>  <PDB_ID>  (594) 
nan

>  <Standardized_SMILES>  (594) 
CN(Cc1cnc2nc(N)nc(N)c2n1)c1ccc(C(=O)N[C@@H](CCC(=O)O)C(=O)O)cc1

>  <Name>  (594) 
Methotrexate

>  <Pocket>  (594) 
nan

>  <ATP_Site>  (594) 
nan

>  <Peripheral>  (594) 
nan

>  <Num_H_Atoms_ProtBoundConf>  (594) 
nan

>  <Num_Resolved_Atoms>  (594) 
nan

>  <Num_Not_Resolved_Atoms>  (594) 
nan

$$$$
CHEMBL416
     RDKit          3D

  0  0  0  0  0  0  0  0  0  0999 V3000
M  V30 BEGIN CTAB
M  V30 COUNTS 24 26 0 0 0
M  V30 BEGIN ATOM
M  V30 1 C -1.329430 -0.381225 3.353917 0
M  V30 2 O 0.075909 -0.232683 3.127656 0
M  V30 3 C 0.514298 -0.319155 1.794488 0
M  V30 4 C 0.840531 -1.598892 1.397987 0
M  V30 5 O 0.856086 -2.777401 1.926708 0
M  V30 6 C 1.267669 -3.688217 1.081611 0
M  V30 7 C 1.555324 -3.063825 -0.126962 0
M  V30 8 C 1.281337 -1.730751 0.079476 0
M  V30 9 C 1.395917 -0.677673 -0.796100 0
M  V30 10 C 1.056861 0.583178 -0.350122 0
M  V30 11 C 1.135344 1.709251 -1.148239 0
M  V30 12 C 0.791840 2.965296 -0.685953 0
M  V30 13 C 0.367935 3.000621 0.626842 0
M  V30 14 O 0.047641 4.157142 1.065065 0
M  V30 15 O 0.269579 1.972983 1.439060 0
M  V30 16 C 0.608106 0.778785 0.962088 0
M  V30 17 H -1.860789 0.582726 3.403092 0
M  V30 18 H -1.806464 -0.954613 2.505895 0
M  V30 19 H -1.489979 -1.030911 4.249117 0
M  V30 20 H 1.310123 -4.710138 1.449188 0
M  V30 21 H 1.909080 -3.625657 -0.961639 0
M  V30 22 H 1.734894 -0.816169 -1.791849 0
M  V30 23 H 1.477933 1.586943 -2.163241 0
M  V30 24 H 0.842393 3.862132 -1.284073 0
M  V30 END ATOM
M  V30 BEGIN BOND
M  V30 1 1 1 2
M  V30 2 1 2 3
M  V30 3 2 3 4
M  V30 4 1 4 5
M  V30 5 1 5 6
M  V30 6 2 6 7
M  V30 7 1 7 8
M  V30 8 2 8 9
M  V30 9 1 9 10
M  V30 10 1 10 11
M  V30 11 2 11 12
M  V30 12 1 12 13
M  V30 13 2 13 14
M  V30 14 1 13 15
M  V30 15 1 15 16
M  V30 16 1 16 3
M  V30 17 1 8 4
M  V30 18 2 16 10
M  V30 19 1 1 17
M  V30 20 1 1 18
M  V30 21 1 1 19
M  V30 22 1 6 20
M  V30 23 1 7 21
M  V30 24 1 9 22
M  V30 25 1 11 23
M  V30 26 1 12 24
M  V30 END BOND
M  V30 END CTAB
M  END
>  <Dataset>  (595) 
OralDrugs

>  <Ligand_Instance>  (595) 
nan

>  <PDB_ID>  (595) 
nan

>  <Standardized_SMILES>  (595) 
COc1c2occc2cc2ccc(=O)oc12

>  <Name>  (595) 
Methoxsalen

>  <Pocket>  (595) 
nan

>  <ATP_Site>  (595) 
nan

>  <Peripheral>  (595) 
nan

>  <Num_H_Atoms_ProtBoundConf>  (595) 
nan

>  <Num_Resolved_Atoms>  (595) 
nan

>  <Num_Not_Resolved_Atoms>  (595) 
nan

$$$$
CHEMBL376897
     RDKit          3D

  0  0  0  0  0  0  0  0  0  0999 V3000
M  V30 BEGIN CTAB
M  V30 COUNTS 47 50 0 0 0
M  V30 BEGIN ATOM
M  V30 1 C -0.810928 3.589540 -0.749072 0
M  V30 2 N 0.160791 2.568145 -1.036794 0 CHG=1 VAL=4
M  V30 3 C 0.832841 2.954754 -2.245801 0
M  V30 4 C -0.439862 1.259814 -1.193960 0 CFG=2
M  V30 5 C -1.331854 0.924744 -0.031878 0
M  V30 6 C -0.525991 0.836073 1.235978 0 CFG=1
M  V30 7 O 0.084382 -0.440444 1.272083 0
M  V30 8 C -0.153742 -1.365630 2.256600 0
M  V30 9 O -0.976990 -0.947070 3.119307 0
M  V30 10 C 0.429120 -2.730548 2.396973 0 CFG=2
M  V30 11 C 1.919646 -2.684377 2.576172 0
M  V30 12 O 2.247739 -1.955499 3.728114 0
M  V30 13 C 0.112544 -3.588690 1.223313 0
M  V30 14 C -0.722770 -4.671010 1.467403 0
M  V30 15 C -1.061964 -5.524056 0.413447 0
M  V30 16 C -0.555181 -5.270149 -0.857569 0
M  V30 17 C 0.277002 -4.194556 -1.107910 0
M  V30 18 C 0.594134 -3.370551 -0.048471 0
M  V30 19 C 0.428788 1.977739 1.313873 0
M  V30 20 C 1.098350 2.309291 0.030471 0 CFG=1
M  V30 21 C 1.742233 0.995746 -0.444675 0 CFG=2
M  V30 22 O 1.971412 0.841447 -1.798991 0
M  V30 23 C 0.782300 0.343970 -1.180333 0 CFG=2
M  V30 24 H -0.476974 4.567839 -1.177107 0
M  V30 25 H -1.059787 3.750699 0.290033 0
M  V30 26 H -1.742249 3.331784 -1.324791 0
M  V30 27 H 0.633170 2.246457 -3.101115 0
M  V30 28 H 1.926140 3.155991 -2.117267 0
M  V30 29 H 0.456289 3.933127 -2.670689 0
M  V30 30 H -0.990730 1.167625 -2.155473 0
M  V30 31 H -2.089222 1.720093 0.134517 0
M  V30 32 H -1.844086 -0.044898 -0.255725 0
M  V30 33 H -1.209066 0.926205 2.133976 0
M  V30 34 H -0.018109 -3.205578 3.301519 0
M  V30 35 H 2.301105 -3.694175 2.740845 0
M  V30 36 H 2.344387 -2.210731 1.671948 0
M  V30 37 H 1.884764 -2.503022 4.495011 0
M  V30 38 H -1.173683 -4.959859 2.422781 0
M  V30 39 H -1.696483 -6.393565 0.466857 0
M  V30 40 H -0.772277 -5.889612 -1.737229 0
M  V30 41 H 0.697812 -3.951959 -2.074781 0
M  V30 42 H 1.229942 -2.497962 -0.085645 0
M  V30 43 H -0.061954 2.834165 1.814476 0
M  V30 44 H 1.255489 1.699878 2.034903 0
M  V30 45 H 1.837893 3.097654 0.172790 0
M  V30 46 H 2.551681 0.660685 0.204937 0
M  V30 47 H 0.606887 -0.687465 -1.505949 0
M  V30 END ATOM
M  V30 BEGIN BOND
M  V30 1 1 1 2
M  V30 2 1 2 3
M  V30 3 1 2 4
M  V30 4 1 4 5
M  V30 5 1 5 6
M  V30 6 1 6 7
M  V30 7 1 7 8
M  V30 8 2 8 9
M  V30 9 1 8 10
M  V30 10 1 10 11
M  V30 11 1 11 12
M  V30 12 1 10 13
M  V30 13 2 13 14
M  V30 14 1 14 15
M  V30 15 2 15 16
M  V30 16 1 16 17
M  V30 17 2 17 18
M  V30 18 1 6 19
M  V30 19 1 19 20
M  V30 20 1 20 21
M  V30 21 1 21 22
M  V30 22 1 22 23
M  V30 23 1 20 2
M  V30 24 1 23 21
M  V30 25 1 23 4
M  V30 26 1 18 13
M  V30 27 1 1 24
M  V30 28 1 1 25
M  V30 29 1 1 26
M  V30 30 1 3 27
M  V30 31 1 3 28
M  V30 32 1 3 29
M  V30 33 1 4 30 CFG=3
M  V30 34 1 5 31
M  V30 35 1 5 32
M  V30 36 1 6 33 CFG=1
M  V30 37 1 10 34 CFG=1
M  V30 38 1 11 35
M  V30 39 1 11 36
M  V30 40 1 12 37
M  V30 41 1 14 38
M  V30 42 1 15 39
M  V30 43 1 16 40
M  V30 44 1 17 41
M  V30 45 1 18 42
M  V30 46 1 19 43
M  V30 47 1 19 44
M  V30 48 1 20 45 CFG=1
M  V30 49 1 21 46 CFG=1
M  V30 50 1 23 47 CFG=1
M  V30 END BOND
M  V30 END CTAB
M  END
>  <Dataset>  (596) 
OralDrugs

>  <Ligand_Instance>  (596) 
nan

>  <PDB_ID>  (596) 
nan

>  <Standardized_SMILES>  (596) 
C[N+]1(C)[C@@H]2C[C@@H](OC(=O)[C@H](CO)c3ccccc3)C[C@H]1[C@@H]1O[C@@H]12

>  <Name>  (596) 
Methscopolamine

>  <Pocket>  (596) 
nan

>  <ATP_Site>  (596) 
nan

>  <Peripheral>  (596) 
nan

>  <Num_H_Atoms_ProtBoundConf>  (596) 
nan

>  <Num_Resolved_Atoms>  (596) 
nan

>  <Num_Not_Resolved_Atoms>  (596) 
nan

$$$$
CHEMBL697
     RDKit          3D

  0  0  0  0  0  0  0  0  0  0999 V3000
M  V30 BEGIN CTAB
M  V30 COUNTS 28 29 0 0 0
M  V30 BEGIN ATOM
M  V30 1 C 3.081126 -1.425127 2.376897 0
M  V30 2 N 1.665825 -1.080964 2.208907 0
M  V30 3 C 0.631577 -2.027335 2.479489 0
M  V30 4 O 0.779888 -3.261689 2.657449 0
M  V30 5 C -0.610720 -1.207799 2.494982 0
M  V30 6 C -0.271675 -0.122363 1.513939 0
M  V30 7 C -1.012001 1.159488 1.835346 0
M  V30 8 C -0.384037 -0.516647 0.101624 0
M  V30 9 C -1.061300 -1.558796 -0.498188 0
M  V30 10 C -1.013785 -1.722221 -1.866827 0
M  V30 11 C -0.317734 -0.893727 -2.697030 0
M  V30 12 C 0.356186 0.140514 -2.116720 0
M  V30 13 C 0.327810 0.329149 -0.756430 0
M  V30 14 C 1.181433 0.184761 1.774491 0
M  V30 15 O 1.922497 1.207231 1.687414 0
M  V30 16 H 3.728688 -0.664973 1.892657 0
M  V30 17 H 3.294649 -1.418497 3.466512 0
M  V30 18 H 3.309162 -2.403807 1.932767 0
M  V30 19 H -1.504386 -1.753220 2.198545 0
M  V30 20 H -0.755224 -0.812926 3.506591 0
M  V30 21 H -0.571580 1.992991 1.251790 0
M  V30 22 H -0.778609 1.371386 2.901295 0
M  V30 23 H -2.110684 1.072322 1.728725 0
M  V30 24 H -1.589587 -2.173345 0.216743 0
M  V30 25 H -1.576661 -2.563928 -2.219651 0
M  V30 26 H -0.342342 -1.106440 -3.761595 0
M  V30 27 H 0.913962 0.803600 -2.786853 0
M  V30 28 H 0.913128 1.199373 -0.420260 0
M  V30 END ATOM
M  V30 BEGIN BOND
M  V30 1 1 1 2
M  V30 2 1 2 3
M  V30 3 2 3 4
M  V30 4 1 3 5
M  V30 5 1 5 6
M  V30 6 1 6 7
M  V30 7 1 6 8
M  V30 8 2 8 9
M  V30 9 1 9 10
M  V30 10 2 10 11
M  V30 11 1 11 12
M  V30 12 2 12 13
M  V30 13 1 6 14
M  V30 14 2 14 15
M  V30 15 1 14 2
M  V30 16 1 13 8
M  V30 17 1 1 16
M  V30 18 1 1 17
M  V30 19 1 1 18
M  V30 20 1 5 19
M  V30 21 1 5 20
M  V30 22 1 7 21
M  V30 23 1 7 22
M  V30 24 1 7 23
M  V30 25 1 9 24
M  V30 26 1 10 25
M  V30 27 1 11 26
M  V30 28 1 12 27
M  V30 29 1 13 28
M  V30 END BOND
M  V30 END CTAB
M  END
>  <Dataset>  (597) 
OralDrugs

>  <Ligand_Instance>  (597) 
nan

>  <PDB_ID>  (597) 
nan

>  <Standardized_SMILES>  (597) 
CN1C(=O)CC(C)(c2ccccc2)C1=O

>  <Name>  (597) 
Methsuximide

>  <Pocket>  (597) 
nan

>  <ATP_Site>  (597) 
nan

>  <Peripheral>  (597) 
nan

>  <Num_H_Atoms_ProtBoundConf>  (597) 
nan

>  <Num_Resolved_Atoms>  (597) 
nan

>  <Num_Not_Resolved_Atoms>  (597) 
nan

$$$$
CHEMBL1577
     RDKit          3D

  0  0  0  0  0  0  0  0  0  0999 V3000
M  V30 BEGIN CTAB
M  V30 COUNTS 31 32 0 0 0
M  V30 BEGIN ATOM
M  V30 1 C -1.562056 -3.891179 1.961427 0
M  V30 2 N -0.539748 -3.151176 1.313154 0
M  V30 3 C 0.528626 -2.800760 2.184394 0
M  V30 4 C 0.078200 -1.783282 3.217404 0
M  V30 5 Cl -1.225071 -2.356574 4.239325 0
M  V30 6 N 1.659795 -2.206157 1.438366 0
M  V30 7 C 1.332129 -1.020320 0.700707 0
M  V30 8 C 2.375617 -0.118814 0.455026 0
M  V30 9 C 2.257191 1.073080 -0.233414 0
M  V30 10 Cl 3.601734 2.130143 -0.492100 0
M  V30 11 C 0.999182 1.385970 -0.711958 0
M  V30 12 S 0.781807 2.872804 -1.587567 0
M  V30 13 N -0.870876 3.014689 -2.067159 0
M  V30 14 O 1.659247 2.980039 -2.797588 0
M  V30 15 O 1.068760 4.094863 -0.730452 0
M  V30 16 C -0.063510 0.532263 -0.497471 0
M  V30 17 C 0.079573 -0.649980 0.191538 0
M  V30 18 S -1.228644 -1.796387 0.504748 0
M  V30 19 O -1.830692 -2.295069 -0.779807 0
M  V30 20 O -2.281945 -1.101083 1.279142 0
M  V30 21 H -1.234614 -4.472379 2.858568 0
M  V30 22 H -2.004392 -4.683549 1.278375 0
M  V30 23 H -2.466414 -3.288563 2.245470 0
M  V30 24 H 0.928117 -3.712938 2.650134 0
M  V30 25 H -0.164031 -0.806406 2.738598 0
M  V30 26 H 0.937172 -1.530028 3.906702 0
M  V30 27 H 2.637915 -2.574780 1.413242 0
M  V30 28 H 3.376268 -0.330925 0.815262 0
M  V30 29 H -1.156390 2.116021 -2.520840 0
M  V30 30 H -1.472168 3.080433 -1.192554 0
M  V30 31 H -1.046147 0.765731 -0.865209 0
M  V30 END ATOM
M  V30 BEGIN BOND
M  V30 1 1 1 2
M  V30 2 1 2 3
M  V30 3 1 3 4
M  V30 4 1 4 5
M  V30 5 1 3 6
M  V30 6 1 6 7
M  V30 7 2 7 8
M  V30 8 1 8 9
M  V30 9 1 9 10
M  V30 10 2 9 11
M  V30 11 1 11 12
M  V30 12 1 12 13
M  V30 13 2 12 14
M  V30 14 2 12 15
M  V30 15 1 11 16
M  V30 16 2 16 17
M  V30 17 1 17 18
M  V30 18 2 18 19
M  V30 19 2 18 20
M  V30 20 1 18 2
M  V30 21 1 17 7
M  V30 22 1 1 21
M  V30 23 1 1 22
M  V30 24 1 1 23
M  V30 25 1 3 24
M  V30 26 1 4 25
M  V30 27 1 4 26
M  V30 28 1 6 27
M  V30 29 1 8 28
M  V30 30 1 13 29
M  V30 31 1 13 30
M  V30 32 1 16 31
M  V30 END BOND
M  V30 END CTAB
M  END
>  <Dataset>  (598) 
OralDrugs

>  <Ligand_Instance>  (598) 
nan

>  <PDB_ID>  (598) 
nan

>  <Standardized_SMILES>  (598) 
CN1C(CCl)Nc2cc(Cl)c(S(N)(=O)=O)cc2S1(=O)=O

>  <Name>  (598) 
Methyclothiazide

>  <Pocket>  (598) 
nan

>  <ATP_Site>  (598) 
nan

>  <Peripheral>  (598) 
nan

>  <Num_H_Atoms_ProtBoundConf>  (598) 
nan

>  <Num_Resolved_Atoms>  (598) 
nan

>  <Num_Not_Resolved_Atoms>  (598) 
nan

$$$$
CHEMBL459
     RDKit          3D

  0  0  0  0  0  0  0  0  0  0999 V3000
M  V30 BEGIN CTAB
M  V30 COUNTS 28 28 0 0 0
M  V30 BEGIN ATOM
M  V30 1 C -1.698738 -0.226401 1.843930 0
M  V30 2 C -0.335632 -0.083545 2.488529 0 CFG=2
M  V30 3 N -0.525658 0.737115 3.676590 0
M  V30 4 C 0.604864 0.641953 1.593010 0
M  V30 5 C 0.848831 0.008211 0.293202 0
M  V30 6 C 1.900609 -0.889814 0.232230 0
M  V30 7 C 2.267065 -1.573583 -0.910056 0
M  V30 8 C 1.525833 -1.334013 -2.055879 0
M  V30 9 O 1.801610 -1.965454 -3.268746 0
M  V30 10 C 0.477805 -0.436777 -1.987826 0
M  V30 11 O -0.267935 -0.198112 -3.147744 0
M  V30 12 C 0.112186 0.245983 -0.846503 0
M  V30 13 C 0.179033 -1.378458 2.985585 0
M  V30 14 O 0.235846 -1.225828 4.227360 0
M  V30 15 O 0.657762 -2.638818 3.223601 0
M  V30 16 H -1.635495 -0.580532 0.801956 0
M  V30 17 H -2.223818 0.750747 1.825117 0
M  V30 18 H -2.350254 -0.900446 2.440050 0
M  V30 19 H -1.113490 0.192950 4.361241 0
M  V30 20 H 0.373244 0.946507 4.167976 0
M  V30 21 H 1.572123 0.786630 2.134063 0
M  V30 22 H 0.182551 1.673475 1.457281 0
M  V30 23 H 2.523713 -1.121995 1.102444 0
M  V30 24 H 3.092617 -2.272458 -0.939763 0
M  V30 25 H 1.369782 -2.878311 -3.408929 0
M  V30 26 H -0.718808 -1.015180 -3.556691 0
M  V30 27 H -0.703865 0.941690 -0.802387 0
M  V30 28 H 0.053824 -3.458523 3.172969 0
M  V30 END ATOM
M  V30 BEGIN BOND
M  V30 1 1 1 2
M  V30 2 1 2 3 CFG=1
M  V30 3 1 2 4
M  V30 4 1 4 5
M  V30 5 2 5 6
M  V30 6 1 6 7
M  V30 7 2 7 8
M  V30 8 1 8 9
M  V30 9 1 8 10
M  V30 10 1 10 11
M  V30 11 2 10 12
M  V30 12 1 2 13
M  V30 13 2 13 14
M  V30 14 1 13 15
M  V30 15 1 12 5
M  V30 16 1 1 16
M  V30 17 1 1 17
M  V30 18 1 1 18
M  V30 19 1 3 19
M  V30 20 1 3 20
M  V30 21 1 4 21
M  V30 22 1 4 22
M  V30 23 1 6 23
M  V30 24 1 7 24
M  V30 25 1 9 25
M  V30 26 1 11 26
M  V30 27 1 12 27
M  V30 28 1 15 28
M  V30 END BOND
M  V30 END CTAB
M  END
>  <Dataset>  (599) 
OralDrugs

>  <Ligand_Instance>  (599) 
nan

>  <PDB_ID>  (599) 
nan

>  <Standardized_SMILES>  (599) 
C[C@](N)(Cc1ccc(O)c(O)c1)C(=O)O

>  <Name>  (599) 
Methyldopa

>  <Pocket>  (599) 
nan

>  <ATP_Site>  (599) 
nan

>  <Peripheral>  (599) 
nan

>  <Num_H_Atoms_ProtBoundConf>  (599) 
nan

>  <Num_Resolved_Atoms>  (599) 
nan

>  <Num_Not_Resolved_Atoms>  (599) 
nan

$$$$
CHEMBL1201356
     RDKit          3D

  0  0  0  0  0  0  0  0  0  0999 V3000
M  V30 BEGIN CTAB
M  V30 COUNTS 50 53 0 0 0
M  V30 BEGIN ATOM
M  V30 1 C 3.641192 -5.346779 0.887353 0
M  V30 2 C 3.386531 -4.117478 0.034018 0
M  V30 3 C 2.101351 -3.510724 0.528267 0 CFG=1
M  V30 4 C 2.319276 -3.154681 2.003183 0
M  V30 5 O 3.364788 -2.242396 2.127735 0
M  V30 6 N 1.777404 -2.265303 -0.164823 0
M  V30 7 C 0.561430 -2.047881 -0.881606 0
M  V30 8 O -0.114703 -3.104899 -0.782080 0
M  V30 9 C 0.554671 -0.682174 -1.462571 0 CFG=2
M  V30 10 C 0.666123 0.366427 -0.414193 0
M  V30 11 C -0.419732 0.745425 0.266533 0
M  V30 12 C -0.240230 1.774586 1.277839 0
M  V30 13 C 0.949464 2.336727 1.670803 0
M  V30 14 C 0.878566 3.308293 2.662918 0
M  V30 15 C -0.334166 3.704187 3.241533 0
M  V30 16 C -1.541631 3.154043 2.863518 0
M  V30 17 N -2.859784 3.216088 3.121553 0
M  V30 18 C -3.511954 2.321947 2.314736 0
M  V30 19 C -2.593627 1.650682 1.500338 0
M  V30 20 C -1.397748 2.202597 1.880838 0
M  V30 21 C -2.915808 0.616280 0.500815 0
M  V30 22 C -1.674698 0.053233 -0.109904 0 CFG=1
M  V30 23 N -1.806244 0.060946 -1.563632 0
M  V30 24 C -3.049024 -0.676531 -1.835576 0
M  V30 25 C -0.693887 -0.488908 -2.252588 0
M  V30 26 H 2.688890 -5.852527 1.174715 0
M  V30 27 H 4.229146 -6.110015 0.322576 0
M  V30 28 H 4.151653 -5.092874 1.835678 0
M  V30 29 H 4.243132 -3.429949 0.253964 0
M  V30 30 H 3.348987 -4.372763 -1.043626 0
M  V30 31 H 1.320277 -4.263682 0.445052 0
M  V30 32 H 1.387433 -2.677140 2.349077 0
M  V30 33 H 2.550815 -4.060754 2.593908 0
M  V30 34 H 3.023036 -1.340908 2.366696 0
M  V30 35 H 2.612248 -1.636628 -0.001680 0
M  V30 36 H 1.413478 -0.551294 -2.155547 0
M  V30 37 H 1.639438 0.793053 -0.236932 0
M  V30 38 H 1.847561 2.020382 1.221425 0
M  V30 39 H 1.799590 3.794550 3.018598 0
M  V30 40 H -0.387871 4.460887 4.013791 0
M  V30 41 H -3.218871 3.875806 3.841419 0
M  V30 42 H -4.602832 2.237846 2.391439 0
M  V30 43 H -3.475960 -0.228943 0.994401 0
M  V30 44 H -3.558976 1.071563 -0.300590 0
M  V30 45 H -1.606139 -1.027655 0.226077 0
M  V30 46 H -3.904520 -0.018905 -1.989680 0
M  V30 47 H -2.868332 -1.296591 -2.741190 0
M  V30 48 H -3.268632 -1.384632 -1.011128 0
M  V30 49 H -0.500665 0.083640 -3.190678 0
M  V30 50 H -1.008924 -1.507614 -2.623506 0
M  V30 END ATOM
M  V30 BEGIN BOND
M  V30 1 1 1 2
M  V30 2 1 2 3
M  V30 3 1 3 4
M  V30 4 1 4 5
M  V30 5 1 3 6
M  V30 6 1 6 7
M  V30 7 2 7 8
M  V30 8 1 7 9
M  V30 9 1 9 10
M  V30 10 2 10 11
M  V30 11 1 11 12
M  V30 12 2 12 13
M  V30 13 1 13 14
M  V30 14 2 14 15
M  V30 15 1 15 16
M  V30 16 1 16 17
M  V30 17 1 17 18
M  V30 18 2 18 19
M  V30 19 1 19 20
M  V30 20 1 19 21
M  V30 21 1 21 22
M  V30 22 1 22 23
M  V30 23 1 23 24
M  V30 24 1 23 25
M  V30 25 1 25 9
M  V30 26 1 22 11
M  V30 27 1 20 12
M  V30 28 2 20 16
M  V30 29 1 1 26
M  V30 30 1 1 27
M  V30 31 1 1 28
M  V30 32 1 2 29
M  V30 33 1 2 30
M  V30 34 1 3 31 CFG=1
M  V30 35 1 4 32
M  V30 36 1 4 33
M  V30 37 1 5 34
M  V30 38 1 6 35
M  V30 39 1 9 36 CFG=3
M  V30 40 1 10 37
M  V30 41 1 13 38
M  V30 42 1 14 39
M  V30 43 1 15 40
M  V30 44 1 17 41
M  V30 45 1 18 42
M  V30 46 1 21 43
M  V30 47 1 21 44
M  V30 48 1 22 45 CFG=1
M  V30 49 1 24 46
M  V30 50 1 24 47
M  V30 51 1 24 48
M  V30 52 1 25 49
M  V30 53 1 25 50
M  V30 END BOND
M  V30 END CTAB
M  END
>  <Dataset>  (600) 
OralDrugs

>  <Ligand_Instance>  (600) 
nan

>  <PDB_ID>  (600) 
nan

>  <Standardized_SMILES>  (600) 
CC[C@@H](CO)NC(=O)[C@@H]1C=C2c3cccc4[nH]cc(c34)C[C@H]2N(C)C1

>  <Name>  (600) 
Methylergonovine

>  <Pocket>  (600) 
nan

>  <ATP_Site>  (600) 
nan

>  <Peripheral>  (600) 
nan

>  <Num_H_Atoms_ProtBoundConf>  (600) 
nan

>  <Num_Resolved_Atoms>  (600) 
nan

>  <Num_Not_Resolved_Atoms>  (600) 
nan

$$$$
CHEMBL1186579
     RDKit          3D

  0  0  0  0  0  0  0  0  0  0999 V3000
M  V30 BEGIN CTAB
M  V30 COUNTS 52 57 0 0 0
M  V30 BEGIN ATOM
M  V30 1 C -1.266185 -2.280923 2.630807 0
M  V30 2 N -0.026796 -1.810460 1.978152 0 CHG=1 VAL=4
M  V30 3 C 0.982156 -2.666694 2.468748 0
M  V30 4 C 2.096824 -2.105749 3.283896 0
M  V30 5 C 3.076073 -1.115046 2.828130 0
M  V30 6 C 3.493685 -2.558261 2.924536 0
M  V30 7 C 0.054936 -0.422798 2.276647 0
M  V30 8 C -1.097151 0.391016 1.766852 0
M  V30 9 C -1.403428 0.073905 0.332022 0 CFG=2
M  V30 10 C -0.178761 0.559242 -0.411974 0
M  V30 11 C 0.941825 -0.158661 -0.720090 0
M  V30 12 C 1.981894 0.429822 -1.402192 0
M  V30 13 C 1.818637 1.777929 -1.750028 0
M  V30 14 C 0.670276 2.488906 -1.426660 0
M  V30 15 O 0.494213 3.820293 -1.763194 0
M  V30 16 C -0.369852 1.886071 -0.739943 0
M  V30 17 O -1.643342 2.228510 -0.240569 0
M  V30 18 C -2.375246 0.989379 -0.298857 0 CFG=1
M  V30 19 C -2.473151 0.665123 -1.749139 0
M  V30 20 O -2.295354 1.488311 -2.657898 0
M  V30 21 C -2.815793 -0.790895 -1.968984 0
M  V30 22 C -1.610528 -1.576701 -1.448989 0
M  V30 23 C -1.485023 -1.373340 0.028521 0 CFG=2
M  V30 24 O -2.621937 -1.994018 0.562743 0
M  V30 25 C -0.196754 -1.978247 0.534352 0 CFG=1
M  V30 26 C 0.957595 -1.578711 -0.283143 0
M  V30 27 H -1.594773 -3.259928 2.234301 0
M  V30 28 H -0.954793 -2.530486 3.690824 0
M  V30 29 H -2.023317 -1.519539 2.748456 0
M  V30 30 H 0.561250 -3.505773 3.117547 0
M  V30 31 H 1.468345 -3.281321 1.654759 0
M  V30 32 H 1.964001 -2.170888 4.430606 0
M  V30 33 H 3.117891 -0.675189 1.834698 0
M  V30 34 H 3.563313 -0.486465 3.614433 0
M  V30 35 H 4.212570 -2.881432 3.706709 0
M  V30 36 H 3.677055 -3.065940 1.970424 0
M  V30 37 H 0.043871 -0.238208 3.392021 0
M  V30 38 H 0.979503 0.079424 1.936309 0
M  V30 39 H -1.975652 0.447134 2.433436 0
M  V30 40 H -0.737799 1.466395 1.739981 0
M  V30 41 H 2.848672 -0.140930 -1.635511 0
M  V30 42 H 2.613898 2.282048 -2.288636 0
M  V30 43 H 0.368873 4.563144 -1.110202 0
M  V30 44 H -3.355109 1.081290 0.186932 0
M  V30 45 H -2.909372 -1.019064 -3.055510 0
M  V30 46 H -3.746947 -1.066176 -1.474409 0
M  V30 47 H -0.747123 -1.333841 -2.055254 0
M  V30 48 H -1.885743 -2.649357 -1.629779 0
M  V30 49 H -3.355940 -1.339187 0.523840 0
M  V30 50 H -0.337031 -3.093289 0.406693 0
M  V30 51 H 0.906642 -2.173238 -1.246061 0
M  V30 52 H 1.953243 -1.773730 0.103342 0
M  V30 END ATOM
M  V30 BEGIN BOND
M  V30 1 1 1 2
M  V30 2 1 2 3
M  V30 3 1 3 4
M  V30 4 1 4 5
M  V30 5 1 5 6
M  V30 6 1 2 7
M  V30 7 1 7 8
M  V30 8 1 9 8 CFG=1
M  V30 9 1 9 10
M  V30 10 2 10 11
M  V30 11 1 11 12
M  V30 12 2 12 13
M  V30 13 1 13 14
M  V30 14 1 14 15
M  V30 15 2 14 16
M  V30 16 1 16 17
M  V30 17 1 17 18
M  V30 18 1 18 19
M  V30 19 2 19 20
M  V30 20 1 19 21
M  V30 21 1 21 22
M  V30 22 1 22 23
M  V30 23 1 23 24 CFG=1
M  V30 24 1 23 25
M  V30 25 1 25 26
M  V30 26 1 25 2
M  V30 27 1 6 4
M  V30 28 1 18 9
M  V30 29 1 23 9
M  V30 30 1 16 10
M  V30 31 1 26 11
M  V30 32 1 1 27
M  V30 33 1 1 28
M  V30 34 1 1 29
M  V30 35 1 3 30
M  V30 36 1 3 31
M  V30 37 1 4 32
M  V30 38 1 5 33
M  V30 39 1 5 34
M  V30 40 1 6 35
M  V30 41 1 6 36
M  V30 42 1 7 37
M  V30 43 1 7 38
M  V30 44 1 8 39
M  V30 45 1 8 40
M  V30 46 1 12 41
M  V30 47 1 13 42
M  V30 48 1 15 43
M  V30 49 1 18 44 CFG=1
M  V30 50 1 21 45
M  V30 51 1 21 46
M  V30 52 1 22 47
M  V30 53 1 22 48
M  V30 54 1 24 49
M  V30 55 1 25 50 CFG=1
M  V30 56 1 26 51
M  V30 57 1 26 52
M  V30 END BOND
M  V30 END CTAB
M  END
>  <Dataset>  (601) 
OralDrugs

>  <Ligand_Instance>  (601) 
nan

>  <PDB_ID>  (601) 
nan

>  <Standardized_SMILES>  (601) 
C[N+]1(CC2CC2)CC[C@]23c4c5ccc(O)c4O[C@H]2C(=O)CC[C@@]3(O)[C@H]1C5

>  <Name>  (601) 
Methylnaltrexone

>  <Pocket>  (601) 
nan

>  <ATP_Site>  (601) 
nan

>  <Peripheral>  (601) 
nan

>  <Num_H_Atoms_ProtBoundConf>  (601) 
nan

>  <Num_Resolved_Atoms>  (601) 
nan

>  <Num_Not_Resolved_Atoms>  (601) 
nan

$$$$
CHEMBL796
     RDKit          3D

  0  0  0  0  0  0  0  0  0  0999 V3000
M  V30 BEGIN CTAB
M  V30 COUNTS 36 37 0 0 0
M  V30 BEGIN ATOM
M  V30 1 C -2.314944 -3.536670 1.113682 0
M  V30 2 O -1.377290 -2.504113 0.780691 0
M  V30 3 C -0.342857 -2.160541 1.638674 0
M  V30 4 O -0.414133 -2.895988 2.675842 0
M  V30 5 C 0.648819 -1.118721 1.363871 0
M  V30 6 C 1.364176 -1.509656 0.107748 0
M  V30 7 C 2.722906 -1.735170 0.170844 0
M  V30 8 C 3.389702 -2.098486 -0.994889 0
M  V30 9 C 2.736645 -2.237099 -2.195194 0
M  V30 10 C 1.378592 -2.008208 -2.241728 0
M  V30 11 C 0.705238 -1.649174 -1.101735 0
M  V30 12 C 0.069188 0.244795 1.104328 0
M  V30 13 C -0.737234 0.792847 2.249715 0
M  V30 14 C -1.375156 2.080554 1.718557 0
M  V30 15 C -0.815578 2.475928 0.387944 0
M  V30 16 C 0.675182 2.337155 0.271199 0
M  V30 17 N 1.178502 1.162871 0.916191 0
M  V30 18 H -1.754019 -4.490419 1.339853 0
M  V30 19 H -2.926422 -3.274124 1.975529 0
M  V30 20 H -2.872273 -3.748517 0.178583 0
M  V30 21 H 1.375865 -1.075549 2.172506 0
M  V30 22 H 3.288549 -1.639739 1.093904 0
M  V30 23 H 4.447686 -2.270527 -0.928904 0
M  V30 24 H 3.266604 -2.522829 -3.107347 0
M  V30 25 H 0.855253 -2.110996 -3.164386 0
M  V30 26 H -0.362400 -1.462485 -1.106399 0
M  V30 27 H -0.578818 0.258567 0.203706 0
M  V30 28 H -1.568811 0.125220 2.548088 0
M  V30 29 H -0.119004 1.055550 3.124930 0
M  V30 30 H -1.190915 2.923593 2.427095 0
M  V30 31 H -2.469272 1.980484 1.604506 0
M  V30 32 H -1.351906 2.021749 -0.477068 0
M  V30 33 H -1.015128 3.581431 0.270459 0
M  V30 34 H 1.211411 3.266416 0.607990 0
M  V30 35 H 0.929184 2.253721 -0.825027 0
M  V30 36 H 1.556324 1.361257 1.891225 0
M  V30 END ATOM
M  V30 BEGIN BOND
M  V30 1 1 1 2
M  V30 2 1 2 3
M  V30 3 2 3 4
M  V30 4 1 3 5
M  V30 5 1 5 6
M  V30 6 2 6 7
M  V30 7 1 7 8
M  V30 8 2 8 9
M  V30 9 1 9 10
M  V30 10 2 10 11
M  V30 11 1 5 12
M  V30 12 1 12 13
M  V30 13 1 13 14
M  V30 14 1 14 15
M  V30 15 1 15 16
M  V30 16 1 16 17
M  V30 17 1 11 6
M  V30 18 1 17 12
M  V30 19 1 1 18
M  V30 20 1 1 19
M  V30 21 1 1 20
M  V30 22 1 5 21
M  V30 23 1 7 22
M  V30 24 1 8 23
M  V30 25 1 9 24
M  V30 26 1 10 25
M  V30 27 1 11 26
M  V30 28 1 12 27
M  V30 29 1 13 28
M  V30 30 1 13 29
M  V30 31 1 14 30
M  V30 32 1 14 31
M  V30 33 1 15 32
M  V30 34 1 15 33
M  V30 35 1 16 34
M  V30 36 1 16 35
M  V30 37 1 17 36
M  V30 END BOND
M  V30 END CTAB
M  END
>  <Dataset>  (602) 
OralDrugs

>  <Ligand_Instance>  (602) 
nan

>  <PDB_ID>  (602) 
nan

>  <Standardized_SMILES>  (602) 
COC(=O)C(c1ccccc1)C1CCCCN1

>  <Name>  (602) 
Methylphenidate

>  <Pocket>  (602) 
nan

>  <ATP_Site>  (602) 
nan

>  <Peripheral>  (602) 
nan

>  <Num_H_Atoms_ProtBoundConf>  (602) 
nan

>  <Num_Resolved_Atoms>  (602) 
nan

>  <Num_Not_Resolved_Atoms>  (602) 
nan

$$$$
CHEMBL650
     RDKit          3D

  0  0  0  0  0  0  0  0  0  0999 V3000
M  V30 BEGIN CTAB
M  V30 COUNTS 57 60 0 0 0
M  V30 BEGIN ATOM
M  V30 1 C -2.810918 -2.657915 3.195074 0
M  V30 2 C -2.439187 -2.536394 1.716896 0 CFG=1
M  V30 3 C -2.067122 -1.139209 1.379598 0
M  V30 4 C -0.941088 -0.933480 0.444864 0 CFG=2
M  V30 5 C 0.154704 -1.981669 0.593148 0 CFG=2
M  V30 6 C 1.374191 -1.668012 -0.187846 0 CFG=1
M  V30 7 O 1.323566 -2.106009 -1.531881 0
M  V30 8 C 1.783843 -0.251519 -0.227714 0
M  V30 9 C 0.666868 0.739357 -0.311156 0 CFG=1
M  V30 10 C 0.056182 0.733882 -1.688298 0
M  V30 11 C -0.287015 0.369321 0.777638 0 CFG=1
M  V30 12 C -1.159162 1.561570 0.871294 0
M  V30 13 C -0.073757 2.641779 1.007821 0
M  V30 14 C 1.053350 2.121546 0.103052 0 CFG=1
M  V30 15 O 2.230029 2.082262 0.848330 0
M  V30 16 C 1.132017 3.095974 -1.020675 0
M  V30 17 O 0.475528 3.558231 -1.965470 0
M  V30 18 C 2.414032 3.858275 -1.175522 0
M  V30 19 O 2.262410 4.697587 -2.273497 0
M  V30 20 C -0.481114 -3.289339 0.254317 0 CFG=1
M  V30 21 C -1.377426 -3.169613 -0.961447 0
M  V30 22 C 0.463917 -4.414486 0.079838 0
M  V30 23 C 0.544439 -5.537518 0.781541 0
M  V30 24 C -0.424369 -5.672771 1.859443 0
M  V30 25 O -0.395315 -6.711839 2.554828 0
M  V30 26 C -1.393306 -4.650144 2.129705 0
M  V30 27 C -1.427527 -3.549318 1.396488 0
M  V30 28 H -1.946108 -2.968272 3.815438 0
M  V30 29 H -3.129709 -1.649107 3.574705 0
M  V30 30 H -3.633259 -3.347268 3.385184 0
M  V30 31 H -3.358220 -2.811829 1.147043 0
M  V30 32 H -2.954783 -0.602895 0.930071 0
M  V30 33 H -1.896102 -0.590637 2.330847 0
M  V30 34 H -1.233656 -0.917910 -0.623887 0
M  V30 35 H 0.429726 -1.995220 1.668307 0
M  V30 36 H 2.206001 -2.264194 0.245958 0
M  V30 37 H 2.192710 -2.348265 -1.888207 0
M  V30 38 H 2.436221 -0.059150 -1.116311 0
M  V30 39 H 2.408054 0.026619 0.650067 0
M  V30 40 H -0.925694 1.195027 -1.768697 0
M  V30 41 H 0.001914 -0.273659 -2.130869 0
M  V30 42 H 0.803021 1.274495 -2.341168 0
M  V30 43 H 0.303051 0.310825 1.715571 0
M  V30 44 H -1.843989 1.563759 1.738918 0
M  V30 45 H -1.749020 1.823459 -0.003748 0
M  V30 46 H -0.420802 3.636408 0.739495 0
M  V30 47 H 0.254708 2.560135 2.073777 0
M  V30 48 H 2.275914 2.887960 1.395172 0
M  V30 49 H 3.280888 3.177216 -1.244048 0
M  V30 50 H 2.479671 4.499543 -0.253329 0
M  V30 51 H 1.968881 4.125258 -3.039822 0
M  V30 52 H -1.668099 -4.217080 -1.221564 0
M  V30 53 H -2.339517 -2.666155 -0.671519 0
M  V30 54 H -0.920975 -2.689080 -1.823206 0
M  V30 55 H 1.175742 -4.294229 -0.726826 0
M  V30 56 H 1.294477 -6.276652 0.535724 0
M  V30 57 H -2.086799 -4.813400 2.947642 0
M  V30 END ATOM
M  V30 BEGIN BOND
M  V30 1 1 1 2
M  V30 2 1 2 3
M  V30 3 1 3 4
M  V30 4 1 4 5
M  V30 5 1 5 6
M  V30 6 1 6 7
M  V30 7 1 6 8
M  V30 8 1 8 9
M  V30 9 1 9 10 CFG=3
M  V30 10 1 9 11
M  V30 11 1 11 12
M  V30 12 1 12 13
M  V30 13 1 13 14
M  V30 14 1 14 15 CFG=1
M  V30 15 1 14 16
M  V30 16 2 16 17
M  V30 17 1 16 18
M  V30 18 1 18 19
M  V30 19 1 5 20
M  V30 20 1 20 21 CFG=3
M  V30 21 1 20 22
M  V30 22 2 22 23
M  V30 23 1 23 24
M  V30 24 2 24 25
M  V30 25 1 24 26
M  V30 26 2 26 27
M  V30 27 1 27 2
M  V30 28 1 11 4
M  V30 29 1 27 20
M  V30 30 1 14 9
M  V30 31 1 1 28
M  V30 32 1 1 29
M  V30 33 1 1 30
M  V30 34 1 2 31 CFG=3
M  V30 35 1 3 32
M  V30 36 1 3 33
M  V30 37 1 4 34 CFG=3
M  V30 38 1 5 35 CFG=1
M  V30 39 1 6 36 CFG=1
M  V30 40 1 7 37
M  V30 41 1 8 38
M  V30 42 1 8 39
M  V30 43 1 10 40
M  V30 44 1 10 41
M  V30 45 1 10 42
M  V30 46 1 11 43 CFG=1
M  V30 47 1 12 44
M  V30 48 1 12 45
M  V30 49 1 13 46
M  V30 50 1 13 47
M  V30 51 1 15 48
M  V30 52 1 18 49
M  V30 53 1 18 50
M  V30 54 1 19 51
M  V30 55 1 21 52
M  V30 56 1 21 53
M  V30 57 1 21 54
M  V30 58 1 22 55
M  V30 59 1 23 56
M  V30 60 1 26 57
M  V30 END BOND
M  V30 END CTAB
M  END
>  <Dataset>  (603) 
OralDrugs

>  <Ligand_Instance>  (603) 
nan

>  <PDB_ID>  (603) 
nan

>  <Standardized_SMILES>  (603) 
C[C@H]1C[C@@H]2[C@H]([C@@H](O)C[C@@]3(C)[C@H]2CC[C@]3(O)C(=O)CO)[C@@]2(C)C=CC(=O)C=C12

>  <Name>  (603) 
Methylprednisolone

>  <Pocket>  (603) 
nan

>  <ATP_Site>  (603) 
nan

>  <Peripheral>  (603) 
nan

>  <Num_H_Atoms_ProtBoundConf>  (603) 
nan

>  <Num_Resolved_Atoms>  (603) 
nan

>  <Num_Not_Resolved_Atoms>  (603) 
nan

$$$$
CHEMBL829
     RDKit          3D

  0  0  0  0  0  0  0  0  0  0999 V3000
M  V30 BEGIN CTAB
M  V30 COUNTS 43 45 0 0 0
M  V30 BEGIN ATOM
M  V30 1 C -0.044581 -0.931839 3.045279 0
M  V30 2 C -0.212887 -1.631764 1.675074 0
M  V30 3 C -0.162858 -3.097967 1.976713 0
M  V30 4 N -0.308637 -3.937559 0.884584 0
M  V30 5 C 0.681257 -4.125140 -0.092165 0
M  V30 6 C -1.648820 -4.217312 0.463744 0
M  V30 7 C 0.893517 -1.173454 0.779623 0
M  V30 8 N 0.905702 0.276482 0.597974 0
M  V30 9 C 1.735949 1.127438 1.358149 0
M  V30 10 C 2.648993 0.633243 2.261799 0
M  V30 11 C 3.521840 1.362620 3.036535 0
M  V30 12 C 3.505485 2.730767 2.919090 0
M  V30 13 C 2.620897 3.306344 2.035226 0
M  V30 14 C 1.793816 2.496059 1.309800 0
M  V30 15 S 0.716885 3.379839 0.199579 0
M  V30 16 C -0.209076 2.126282 -0.663557 0
M  V30 17 C -1.080790 2.626715 -1.586654 0
M  V30 18 C -1.864453 1.755154 -2.313347 0
M  V30 19 C -1.718179 0.408650 -2.059804 0
M  V30 20 C -0.812500 -0.009302 -1.108782 0
M  V30 21 C -0.002489 0.807179 -0.351865 0
M  V30 22 H -0.061259 0.156002 2.909240 0
M  V30 23 H -0.882753 -1.246812 3.717443 0
M  V30 24 H 0.885889 -1.276546 3.508686 0
M  V30 25 H -1.220696 -1.330522 1.292587 0
M  V30 26 H -0.825288 -3.355086 2.852230 0
M  V30 27 H 0.875275 -3.259587 2.439369 0
M  V30 28 H 1.687962 -3.740442 0.106259 0
M  V30 29 H 0.348714 -3.732582 -1.081993 0
M  V30 30 H 0.836560 -5.246786 -0.312080 0
M  V30 31 H -2.327990 -4.507177 1.299402 0
M  V30 32 H -2.069375 -3.298709 0.006850 0
M  V30 33 H -1.676636 -4.991122 -0.348609 0
M  V30 34 H 1.832920 -1.536357 1.232518 0
M  V30 35 H 0.762562 -1.665992 -0.215440 0
M  V30 36 H 2.770670 -0.424630 2.442028 0
M  V30 37 H 4.228661 0.953387 3.737648 0
M  V30 38 H 4.172013 3.345667 3.505620 0
M  V30 39 H 2.637975 4.383866 1.971108 0
M  V30 40 H -1.210111 3.677544 -1.799579 0
M  V30 41 H -2.558488 2.123009 -3.045841 0
M  V30 42 H -2.357977 -0.235291 -2.657886 0
M  V30 43 H -0.832731 -1.083653 -1.037763 0
M  V30 END ATOM
M  V30 BEGIN BOND
M  V30 1 1 1 2
M  V30 2 1 2 3
M  V30 3 1 3 4
M  V30 4 1 4 5
M  V30 5 1 4 6
M  V30 6 1 2 7
M  V30 7 1 7 8
M  V30 8 1 8 9
M  V30 9 2 9 10
M  V30 10 1 10 11
M  V30 11 2 11 12
M  V30 12 1 12 13
M  V30 13 2 13 14
M  V30 14 1 14 15
M  V30 15 1 15 16
M  V30 16 2 16 17
M  V30 17 1 17 18
M  V30 18 2 18 19
M  V30 19 1 19 20
M  V30 20 2 20 21
M  V30 21 1 21 8
M  V30 22 1 14 9
M  V30 23 1 21 16
M  V30 24 1 1 22
M  V30 25 1 1 23
M  V30 26 1 1 24
M  V30 27 1 2 25
M  V30 28 1 3 26
M  V30 29 1 3 27
M  V30 30 1 5 28
M  V30 31 1 5 29
M  V30 32 1 5 30
M  V30 33 1 6 31
M  V30 34 1 6 32
M  V30 35 1 6 33
M  V30 36 1 7 34
M  V30 37 1 7 35
M  V30 38 1 10 36
M  V30 39 1 11 37
M  V30 40 1 12 38
M  V30 41 1 13 39
M  V30 42 1 17 40
M  V30 43 1 18 41
M  V30 44 1 19 42
M  V30 45 1 20 43
M  V30 END BOND
M  V30 END CTAB
M  END
>  <Dataset>  (604) 
OralDrugs

>  <Ligand_Instance>  (604) 
nan

>  <PDB_ID>  (604) 
nan

>  <Standardized_SMILES>  (604) 
CC(CN(C)C)CN1c2ccccc2Sc2ccccc21

>  <Name>  (604) 
Methylpromazine

>  <Pocket>  (604) 
nan

>  <ATP_Site>  (604) 
nan

>  <Peripheral>  (604) 
nan

>  <Num_H_Atoms_ProtBoundConf>  (604) 
nan

>  <Num_Resolved_Atoms>  (604) 
nan

>  <Num_Not_Resolved_Atoms>  (604) 
nan

$$$$
CHEMBL1395
     RDKit          3D

  0  0  0  0  0  0  0  0  0  0999 V3000
M  V30 BEGIN CTAB
M  V30 COUNTS 52 55 0 0 0
M  V30 BEGIN ATOM
M  V30 1 C 2.821475 -1.581735 1.208643 0
M  V30 2 C 1.878954 -1.501875 0.016062 0 CFG=2
M  V30 3 C 2.049361 -2.867525 -0.678505 0
M  V30 4 C 3.499456 -3.164435 -0.937000 0
M  V30 5 C 4.180418 -2.063166 -1.664193 0
M  V30 6 O 5.328477 -2.266729 -2.134326 0
M  V30 7 C 3.423969 -0.812870 -1.763931 0
M  V30 8 C 2.376421 -0.549837 -1.003750 0
M  V30 9 C 1.725787 0.741738 -1.220998 0
M  V30 10 C 0.219769 0.566602 -1.247460 0
M  V30 11 C -0.101046 0.090209 0.137262 0 CFG=2
M  V30 12 C 0.483224 -1.287069 0.447188 0 CFG=2
M  V30 13 C 0.126997 -1.626261 1.834677 0
M  V30 14 C -0.673068 -0.656806 2.641038 0
M  V30 15 C -1.661823 0.170584 1.916202 0 CFG=1
M  V30 16 C -1.494220 1.655832 2.203504 0
M  V30 17 C -1.540714 -0.097628 0.422150 0 CFG=1
M  V30 18 C -2.540921 0.811831 -0.123882 0
M  V30 19 C -3.680128 0.665309 0.887125 0
M  V30 20 C -3.102378 -0.142799 2.060967 0 CFG=1
M  V30 21 C -3.478647 -1.582061 1.962005 0
M  V30 22 O -3.577180 0.468918 3.233393 0
M  V30 23 H 2.739654 -2.600713 1.615730 0
M  V30 24 H 3.892590 -1.520181 0.875560 0
M  V30 25 H 2.714762 -0.759967 1.921842 0
M  V30 26 H 1.637786 -3.640243 -0.024051 0
M  V30 27 H 1.499226 -2.900115 -1.637257 0
M  V30 28 H 3.521390 -4.050908 -1.604914 0
M  V30 29 H 4.027358 -3.463087 -0.007822 0
M  V30 30 H 3.781234 -0.094727 -2.517145 0
M  V30 31 H 1.926775 1.387318 -0.317239 0
M  V30 32 H 2.063532 1.308244 -2.077569 0
M  V30 33 H -0.231323 1.550825 -1.361778 0
M  V30 34 H -0.115571 -0.106894 -2.051911 0
M  V30 35 H 0.408715 0.791987 0.831774 0
M  V30 36 H -0.138271 -1.951947 -0.230776 0
M  V30 37 H 1.055843 -1.819973 2.451313 0
M  V30 38 H -0.391306 -2.613848 1.897557 0
M  V30 39 H -1.222690 -1.199301 3.441056 0
M  V30 40 H 0.006810 0.032037 3.191000 0
M  V30 41 H -2.381217 2.073346 2.714296 0
M  V30 42 H -0.669365 1.741573 2.963434 0
M  V30 43 H -1.151207 2.241187 1.349308 0
M  V30 44 H -1.925299 -1.129421 0.271009 0
M  V30 45 H -2.919471 0.399875 -1.085526 0
M  V30 46 H -2.277227 1.852535 -0.308112 0
M  V30 47 H -4.512851 0.047277 0.481816 0
M  V30 48 H -4.007334 1.667600 1.204685 0
M  V30 49 H -4.371646 -1.744100 2.632222 0
M  V30 50 H -3.767917 -1.883229 0.915202 0
M  V30 51 H -2.738885 -2.307378 2.292306 0
M  V30 52 H -3.353937 -0.174544 3.961509 0
M  V30 END ATOM
M  V30 BEGIN BOND
M  V30 1 1 2 1 CFG=1
M  V30 2 1 2 3
M  V30 3 1 3 4
M  V30 4 1 4 5
M  V30 5 2 5 6
M  V30 6 1 5 7
M  V30 7 2 7 8
M  V30 8 1 8 9
M  V30 9 1 9 10
M  V30 10 1 10 11
M  V30 11 1 11 12
M  V30 12 1 12 13
M  V30 13 1 13 14
M  V30 14 1 14 15
M  V30 15 1 15 16 CFG=3
M  V30 16 1 15 17
M  V30 17 1 17 18
M  V30 18 1 18 19
M  V30 19 1 19 20
M  V30 20 1 20 21
M  V30 21 1 20 22 CFG=1
M  V30 22 1 8 2
M  V30 23 1 17 11
M  V30 24 1 12 2
M  V30 25 1 20 15
M  V30 26 1 1 23
M  V30 27 1 1 24
M  V30 28 1 1 25
M  V30 29 1 3 26
M  V30 30 1 3 27
M  V30 31 1 4 28
M  V30 32 1 4 29
M  V30 33 1 7 30
M  V30 34 1 9 31
M  V30 35 1 9 32
M  V30 36 1 10 33
M  V30 37 1 10 34
M  V30 38 1 11 35 CFG=1
M  V30 39 1 12 36 CFG=3
M  V30 40 1 13 37
M  V30 41 1 13 38
M  V30 42 1 14 39
M  V30 43 1 14 40
M  V30 44 1 16 41
M  V30 45 1 16 42
M  V30 46 1 16 43
M  V30 47 1 17 44 CFG=1
M  V30 48 1 18 45
M  V30 49 1 18 46
M  V30 50 1 19 47
M  V30 51 1 19 48
M  V30 52 1 21 49
M  V30 53 1 21 50
M  V30 54 1 21 51
M  V30 55 1 22 52
M  V30 END BOND
M  V30 END CTAB
M  END
>  <Dataset>  (605) 
OralDrugs

>  <Ligand_Instance>  (605) 
nan

>  <PDB_ID>  (605) 
nan

>  <Standardized_SMILES>  (605) 
C[C@]12CCC(=O)C=C1CC[C@@H]1[C@@H]2CC[C@@]2(C)[C@H]1CC[C@]2(C)O

>  <Name>  (605) 
Methyltestosterone

>  <Pocket>  (605) 
nan

>  <ATP_Site>  (605) 
nan

>  <Peripheral>  (605) 
nan

>  <Num_H_Atoms_ProtBoundConf>  (605) 
nan

>  <Num_Resolved_Atoms>  (605) 
nan

>  <Num_Not_Resolved_Atoms>  (605) 
nan

$$$$
CHEMBL1200790
     RDKit          3D

  0  0  0  0  0  0  0  0  0  0999 V3000
M  V30 BEGIN CTAB
M  V30 COUNTS 30 30 0 0 0
M  V30 BEGIN ATOM
M  V30 1 C 1.472786 1.131914 2.709634 0
M  V30 2 C 1.322046 -0.327450 2.576286 0
M  V30 3 C 0.468342 -0.869838 1.504474 0
M  V30 4 C -0.947167 -0.447005 1.577839 0
M  V30 5 C -1.236380 1.007621 1.494934 0
M  V30 6 C 0.514572 -2.377193 1.597127 0
M  V30 7 O 0.743647 -2.926392 2.728162 0
M  V30 8 N 0.311577 -3.224784 0.465287 0
M  V30 9 C -0.006944 -2.654895 -0.810392 0
M  V30 10 C 0.722301 -1.347281 -1.091792 0
M  V30 11 C -0.124352 -0.469078 -2.005960 0
M  V30 12 C 1.083441 -0.610707 0.147909 0
M  V30 13 O 1.943497 0.235229 -0.063971 0
M  V30 14 H 2.556299 1.349640 2.975177 0
M  V30 15 H 0.933062 1.544705 3.612928 0
M  V30 16 H 1.208073 1.762859 1.867186 0
M  V30 17 H 2.337078 -0.823496 2.486743 0
M  V30 18 H 0.960745 -0.723639 3.573284 0
M  V30 19 H -1.344706 -0.833173 2.566550 0
M  V30 20 H -1.606939 -0.969672 0.836846 0
M  V30 21 H -1.111458 1.594475 2.405736 0
M  V30 22 H -2.347300 1.089153 1.270169 0
M  V30 23 H -0.765352 1.428475 0.581631 0
M  V30 24 H 0.404491 -4.255589 0.609768 0
M  V30 25 H -1.118973 -2.522329 -0.954798 0
M  V30 26 H 0.254392 -3.416694 -1.576657 0
M  V30 27 H 1.621922 -1.623369 -1.690566 0
M  V30 28 H -0.263121 0.558073 -1.598380 0
M  V30 29 H 0.326082 -0.337600 -3.013924 0
M  V30 30 H -1.108786 -0.959102 -2.198324 0
M  V30 END ATOM
M  V30 BEGIN BOND
M  V30 1 1 1 2
M  V30 2 1 2 3
M  V30 3 1 3 4
M  V30 4 1 4 5
M  V30 5 1 3 6
M  V30 6 2 6 7
M  V30 7 1 6 8
M  V30 8 1 8 9
M  V30 9 1 9 10
M  V30 10 1 10 11
M  V30 11 1 10 12
M  V30 12 2 12 13
M  V30 13 1 12 3
M  V30 14 1 1 14
M  V30 15 1 1 15
M  V30 16 1 1 16
M  V30 17 1 2 17
M  V30 18 1 2 18
M  V30 19 1 4 19
M  V30 20 1 4 20
M  V30 21 1 5 21
M  V30 22 1 5 22
M  V30 23 1 5 23
M  V30 24 1 8 24
M  V30 25 1 9 25
M  V30 26 1 9 26
M  V30 27 1 10 27
M  V30 28 1 11 28
M  V30 29 1 11 29
M  V30 30 1 11 30
M  V30 END BOND
M  V30 END CTAB
M  END
>  <Dataset>  (606) 
OralDrugs

>  <Ligand_Instance>  (606) 
nan

>  <PDB_ID>  (606) 
nan

>  <Standardized_SMILES>  (606) 
CCC1(CC)C(=O)NCC(C)C1=O

>  <Name>  (606) 
Methyprylon

>  <Pocket>  (606) 
nan

>  <ATP_Site>  (606) 
nan

>  <Peripheral>  (606) 
nan

>  <Num_H_Atoms_ProtBoundConf>  (606) 
nan

>  <Num_Resolved_Atoms>  (606) 
nan

>  <Num_Not_Resolved_Atoms>  (606) 
nan

$$$$
CHEMBL485253
     RDKit          3D

  0  0  0  0  0  0  0  0  0  0999 V3000
M  V30 BEGIN CTAB
M  V30 COUNTS 53 56 0 0 0
M  V30 BEGIN ATOM
M  V30 1 C 1.012717 -0.691917 5.566814 0
M  V30 2 C 2.270487 -0.766649 4.718761 0
M  V30 3 C 2.124318 -1.912457 3.762525 0
M  V30 4 C 3.338627 -2.079324 2.862331 0
M  V30 5 O 4.463722 -2.089793 3.690475 0
M  V30 6 N 0.897136 -1.886453 2.997597 0
M  V30 7 C -0.233305 -2.744312 2.905175 0
M  V30 8 O -0.026723 -3.709881 3.703754 0
M  V30 9 C -1.212779 -2.200604 1.929773 0 CFG=2
M  V30 10 C -0.565789 -2.095210 0.580661 0
M  V30 11 C -0.882452 -0.980896 -0.097168 0
M  V30 12 C -0.207986 -0.958842 -1.393415 0
M  V30 13 C 0.975987 -1.639739 -1.712967 0
M  V30 14 C 1.510646 -1.526319 -2.983717 0
M  V30 15 C 0.890733 -0.741002 -3.959504 0
M  V30 16 C -0.281974 -0.038235 -3.717404 0
M  V30 17 C -0.737637 -0.213118 -2.427976 0
M  V30 18 C -1.886124 0.473548 -2.177332 0
M  V30 19 C -2.147931 1.104894 -3.383143 0
M  V30 20 N -1.173469 0.781642 -4.288301 0
M  V30 21 C -0.979243 1.172866 -5.677021 0
M  V30 22 C -2.636918 0.503533 -0.912775 0
M  V30 23 C -1.757412 0.158533 0.242166 0 CFG=1
M  V30 24 N -2.525011 -0.197845 1.419869 0
M  V30 25 C -3.103012 0.973686 2.021368 0
M  V30 26 C -1.657219 -0.823971 2.373863 0
M  V30 27 H 0.776133 -1.695064 5.977529 0
M  V30 28 H 1.251192 -0.053494 6.464679 0
M  V30 29 H 0.174471 -0.243625 5.015665 0
M  V30 30 H 2.534154 0.189283 4.265580 0
M  V30 31 H 3.109097 -1.028422 5.413608 0
M  V30 32 H 2.083652 -2.848900 4.387570 0
M  V30 33 H 3.299456 -3.119960 2.425088 0
M  V30 34 H 3.404847 -1.354020 2.055504 0
M  V30 35 H 5.282682 -1.830951 3.209226 0
M  V30 36 H 1.091874 -0.977393 2.486404 0
M  V30 37 H -2.063457 -2.907124 1.889433 0
M  V30 38 H 0.067510 -2.899965 0.295109 0
M  V30 39 H 1.451889 -2.239417 -0.954017 0
M  V30 40 H 2.422419 -2.045943 -3.246596 0
M  V30 41 H 1.273915 -0.617906 -4.986206 0
M  V30 42 H -2.958230 1.775130 -3.700795 0
M  V30 43 H 0.105908 1.392112 -5.880314 0
M  V30 44 H -1.270292 0.394567 -6.380941 0
M  V30 45 H -1.491300 2.139046 -5.900641 0
M  V30 46 H -3.390165 -0.334131 -0.991161 0
M  V30 47 H -3.179855 1.465646 -0.766011 0
M  V30 48 H -1.159429 1.066864 0.508782 0
M  V30 49 H -4.190437 1.063057 1.788839 0
M  V30 50 H -2.632486 1.894414 1.613890 0
M  V30 51 H -2.922993 1.013459 3.126935 0
M  V30 52 H -0.779188 -0.169816 2.534472 0
M  V30 53 H -2.174687 -0.913564 3.371564 0
M  V30 END ATOM
M  V30 BEGIN BOND
M  V30 1 1 1 2
M  V30 2 1 2 3
M  V30 3 1 3 4
M  V30 4 1 4 5
M  V30 5 1 3 6
M  V30 6 1 6 7
M  V30 7 2 7 8
M  V30 8 1 7 9
M  V30 9 1 9 10
M  V30 10 2 10 11
M  V30 11 1 11 12
M  V30 12 2 12 13
M  V30 13 1 13 14
M  V30 14 2 14 15
M  V30 15 1 15 16
M  V30 16 2 16 17
M  V30 17 1 17 18
M  V30 18 2 18 19
M  V30 19 1 19 20
M  V30 20 1 20 21
M  V30 21 1 18 22
M  V30 22 1 22 23
M  V30 23 1 23 24
M  V30 24 1 24 25
M  V30 25 1 24 26
M  V30 26 1 26 9
M  V30 27 1 23 11
M  V30 28 1 17 12
M  V30 29 1 20 16
M  V30 30 1 1 27
M  V30 31 1 1 28
M  V30 32 1 1 29
M  V30 33 1 2 30
M  V30 34 1 2 31
M  V30 35 1 3 32
M  V30 36 1 4 33
M  V30 37 1 4 34
M  V30 38 1 5 35
M  V30 39 1 6 36
M  V30 40 1 9 37 CFG=3
M  V30 41 1 10 38
M  V30 42 1 13 39
M  V30 43 1 14 40
M  V30 44 1 15 41
M  V30 45 1 19 42
M  V30 46 1 21 43
M  V30 47 1 21 44
M  V30 48 1 21 45
M  V30 49 1 22 46
M  V30 50 1 22 47
M  V30 51 1 23 48 CFG=1
M  V30 52 1 25 49
M  V30 53 1 25 50
M  V30 54 1 25 51
M  V30 55 1 26 52
M  V30 56 1 26 53
M  V30 END BOND
M  V30 END CTAB
M  END
>  <Dataset>  (607) 
OralDrugs

>  <Ligand_Instance>  (607) 
nan

>  <PDB_ID>  (607) 
nan

>  <Standardized_SMILES>  (607) 
CCC(CO)NC(=O)[C@@H]1C=C2c3cccc4c3c(cn4C)C[C@H]2N(C)C1

>  <Name>  (607) 
Methysergide

>  <Pocket>  (607) 
nan

>  <ATP_Site>  (607) 
nan

>  <Peripheral>  (607) 
nan

>  <Num_H_Atoms_ProtBoundConf>  (607) 
nan

>  <Num_Resolved_Atoms>  (607) 
nan

>  <Num_Not_Resolved_Atoms>  (607) 
nan

$$$$
CHEMBL86
     RDKit          3D

  0  0  0  0  0  0  0  0  0  0999 V3000
M  V30 BEGIN CTAB
M  V30 COUNTS 42 42 0 0 0
M  V30 BEGIN ATOM
M  V30 1 C -1.930995 -2.795371 3.192369 0
M  V30 2 C -0.684412 -3.596750 2.999277 0
M  V30 3 N 0.166106 -3.051862 1.906102 0
M  V30 4 C 1.294964 -3.981770 1.904338 0
M  V30 5 C 2.035547 -3.742323 3.203802 0
M  V30 6 C -0.637487 -3.155415 0.744259 0
M  V30 7 C -0.148620 -2.623367 -0.538537 0
M  V30 8 N 0.101870 -1.208198 -0.604832 0
M  V30 9 C 0.968204 -0.357923 0.097000 0
M  V30 10 O 1.653411 -0.986635 0.947642 0
M  V30 11 C 1.189751 1.070777 0.001610 0
M  V30 12 C 2.122507 1.655720 0.823414 0
M  V30 13 C 2.425803 2.994179 0.827520 0
M  V30 14 Cl 3.627545 3.667440 1.903133 0
M  V30 15 C 1.754407 3.813805 -0.047748 0
M  V30 16 N 2.057190 5.199264 -0.055641 0
M  V30 17 C 0.808304 3.310324 -0.901670 0
M  V30 18 C 0.563405 1.958234 -0.842948 0
M  V30 19 O -0.390043 1.486508 -1.711456 0
M  V30 20 C -1.130041 2.222633 -2.636195 0
M  V30 21 H -1.755207 -1.745344 2.845025 0
M  V30 22 H -2.225312 -2.762943 4.269717 0
M  V30 23 H -2.734810 -3.205887 2.551780 0
M  V30 24 H -0.083697 -3.738374 3.926823 0
M  V30 25 H -0.931786 -4.636276 2.644992 0
M  V30 26 H 1.949114 -3.877461 1.035646 0
M  V30 27 H 0.964239 -5.041384 1.913296 0
M  V30 28 H 1.789280 -2.768630 3.673134 0
M  V30 29 H 3.149364 -3.786673 3.045856 0
M  V30 30 H 1.815668 -4.550798 3.953202 0
M  V30 31 H -1.003978 -4.203430 0.550627 0
M  V30 32 H -1.593946 -2.596584 0.977725 0
M  V30 33 H -0.956317 -2.860808 -1.289218 0
M  V30 34 H 0.730424 -3.180741 -0.954549 0
M  V30 35 H -0.471767 -0.697517 -1.316602 0
M  V30 36 H 2.695022 1.066258 1.545635 0
M  V30 37 H 2.813262 5.750036 -0.521195 0
M  V30 38 H 1.557045 5.976868 0.427880 0
M  V30 39 H 0.295885 3.968684 -1.579547 0
M  V30 40 H -1.443822 3.222155 -2.316945 0
M  V30 41 H -0.524716 2.374675 -3.571118 0
M  V30 42 H -2.016468 1.622358 -2.991889 0
M  V30 END ATOM
M  V30 BEGIN BOND
M  V30 1 1 1 2
M  V30 2 1 2 3
M  V30 3 1 3 4
M  V30 4 1 4 5
M  V30 5 1 3 6
M  V30 6 1 6 7
M  V30 7 1 7 8
M  V30 8 1 8 9
M  V30 9 2 9 10
M  V30 10 1 9 11
M  V30 11 2 11 12
M  V30 12 1 12 13
M  V30 13 1 13 14
M  V30 14 2 13 15
M  V30 15 1 15 16
M  V30 16 1 15 17
M  V30 17 2 17 18
M  V30 18 1 18 19
M  V30 19 1 19 20
M  V30 20 1 18 11
M  V30 21 1 1 21
M  V30 22 1 1 22
M  V30 23 1 1 23
M  V30 24 1 2 24
M  V30 25 1 2 25
M  V30 26 1 4 26
M  V30 27 1 4 27
M  V30 28 1 5 28
M  V30 29 1 5 29
M  V30 30 1 5 30
M  V30 31 1 6 31
M  V30 32 1 6 32
M  V30 33 1 7 33
M  V30 34 1 7 34
M  V30 35 1 8 35
M  V30 36 1 12 36
M  V30 37 1 16 37
M  V30 38 1 16 38
M  V30 39 1 17 39
M  V30 40 1 20 40
M  V30 41 1 20 41
M  V30 42 1 20 42
M  V30 END BOND
M  V30 END CTAB
M  END
>  <Dataset>  (608) 
OralDrugs

>  <Ligand_Instance>  (608) 
nan

>  <PDB_ID>  (608) 
nan

>  <Standardized_SMILES>  (608) 
CCN(CC)CCNC(=O)c1cc(Cl)c(N)cc1OC

>  <Name>  (608) 
Metoclopramide

>  <Pocket>  (608) 
nan

>  <ATP_Site>  (608) 
nan

>  <Peripheral>  (608) 
nan

>  <Num_H_Atoms_ProtBoundConf>  (608) 
nan

>  <Num_Resolved_Atoms>  (608) 
nan

>  <Num_Not_Resolved_Atoms>  (608) 
nan

$$$$
CHEMBL878
     RDKit          3D

  0  0  0  0  0  0  0  0  0  0999 V3000
M  V30 BEGIN CTAB
M  V30 COUNTS 40 42 0 0 0
M  V30 BEGIN ATOM
M  V30 1 C -0.528806 -3.374600 0.687764 0
M  V30 2 C 0.950234 -3.629934 0.657069 0
M  V30 3 C 1.456500 -4.897729 0.376522 0
M  V30 4 C 2.843035 -5.087626 0.359058 0
M  V30 5 C 3.701465 -4.037075 0.615473 0
M  V30 6 C 3.218999 -2.774202 0.895340 0
M  V30 7 C 1.832643 -2.582061 0.913320 0
M  V30 8 N 1.238044 -1.297512 1.196032 0
M  V30 9 C 0.985462 -0.424900 0.112250 0
M  V30 10 O 1.667101 -0.469102 -0.918096 0
M  V30 11 C -0.127475 0.534566 0.275798 0
M  V30 12 C -0.444555 1.416784 -0.719819 0
M  V30 13 C -1.508519 2.279565 -0.470278 0
M  V30 14 S -1.937520 3.416205 -1.719895 0
M  V30 15 N -1.804018 5.048706 -1.174505 0
M  V30 16 O -3.368996 3.182923 -2.149646 0
M  V30 17 O -1.072185 3.263794 -2.932969 0
M  V30 18 C -2.223297 2.279586 0.689479 0
M  V30 19 Cl -3.559879 3.382700 0.970022 0
M  V30 20 C -1.895140 1.386257 1.686142 0
M  V30 21 C -0.831871 0.503046 1.472703 0
M  V30 22 N -0.486417 -0.428156 2.506088 0
M  V30 23 C 0.891520 -0.871584 2.548897 0
M  V30 24 C 1.784279 0.329781 2.878884 0
M  V30 25 H -0.913653 -3.338225 1.715408 0
M  V30 26 H -0.792948 -2.478974 0.090761 0
M  V30 27 H -1.006770 -4.245361 0.159262 0
M  V30 28 H 0.762804 -5.704028 0.179057 0
M  V30 29 H 3.253780 -6.077824 0.140245 0
M  V30 30 H 4.784393 -4.171290 0.605040 0
M  V30 31 H 3.865244 -1.908266 1.105557 0
M  V30 32 H 0.132975 1.402155 -1.631829 0
M  V30 33 H -1.245927 5.093273 -0.279016 0
M  V30 34 H -2.735370 5.511276 -1.065865 0
M  V30 35 H -2.455799 1.365174 2.631935 0
M  V30 36 H -1.288309 -0.702208 3.144783 0
M  V30 37 H 1.051931 -1.686287 3.274475 0
M  V30 38 H 2.383597 0.643347 2.004712 0
M  V30 39 H 2.478419 0.093122 3.716139 0
M  V30 40 H 1.148504 1.206238 3.159532 0
M  V30 END ATOM
M  V30 BEGIN BOND
M  V30 1 1 1 2
M  V30 2 2 2 3
M  V30 3 1 3 4
M  V30 4 2 4 5
M  V30 5 1 5 6
M  V30 6 2 6 7
M  V30 7 1 7 8
M  V30 8 1 8 9
M  V30 9 2 9 10
M  V30 10 1 9 11
M  V30 11 2 11 12
M  V30 12 1 12 13
M  V30 13 1 13 14
M  V30 14 1 14 15
M  V30 15 2 14 16
M  V30 16 2 14 17
M  V30 17 2 13 18
M  V30 18 1 18 19
M  V30 19 1 18 20
M  V30 20 2 20 21
M  V30 21 1 21 22
M  V30 22 1 22 23
M  V30 23 1 23 24
M  V30 24 1 7 2
M  V30 25 1 23 8
M  V30 26 1 21 11
M  V30 27 1 1 25
M  V30 28 1 1 26
M  V30 29 1 1 27
M  V30 30 1 3 28
M  V30 31 1 4 29
M  V30 32 1 5 30
M  V30 33 1 6 31
M  V30 34 1 12 32
M  V30 35 1 15 33
M  V30 36 1 15 34
M  V30 37 1 20 35
M  V30 38 1 22 36
M  V30 39 1 23 37
M  V30 40 1 24 38
M  V30 41 1 24 39
M  V30 42 1 24 40
M  V30 END BOND
M  V30 END CTAB
M  END
>  <Dataset>  (609) 
OralDrugs

>  <Ligand_Instance>  (609) 
nan

>  <PDB_ID>  (609) 
nan

>  <Standardized_SMILES>  (609) 
Cc1ccccc1N1C(=O)c2cc(S(N)(=O)=O)c(Cl)cc2NC1C

>  <Name>  (609) 
Metolazone

>  <Pocket>  (609) 
nan

>  <ATP_Site>  (609) 
nan

>  <Peripheral>  (609) 
nan

>  <Num_H_Atoms_ProtBoundConf>  (609) 
nan

>  <Num_Resolved_Atoms>  (609) 
nan

>  <Num_Not_Resolved_Atoms>  (609) 
nan

$$$$
CHEMBL13
     RDKit          3D

  0  0  0  0  0  0  0  0  0  0999 V3000
M  V30 BEGIN CTAB
M  V30 COUNTS 44 44 0 0 0
M  V30 BEGIN ATOM
M  V30 1 C -2.257462 -3.151073 3.359246 0
M  V30 2 O -2.081991 -3.302816 1.987883 0
M  V30 3 C -1.297706 -4.396870 1.657727 0
M  V30 4 C -1.136734 -4.515786 0.137482 0
M  V30 5 C -0.484479 -3.254967 -0.318159 0
M  V30 6 C 0.884324 -3.105324 -0.395917 0
M  V30 7 C 1.436431 -1.892342 -0.832905 0
M  V30 8 C 0.629214 -0.813175 -1.197979 0
M  V30 9 O 1.463852 0.209276 -1.573332 0
M  V30 10 C 1.145062 1.484832 -2.007455 0
M  V30 11 C 0.404946 2.375549 -1.075622 0
M  V30 12 O 0.168024 3.572520 -1.820371 0
M  V30 13 C 1.237465 2.704396 0.127178 0
M  V30 14 N 1.503965 1.550913 0.915265 0
M  V30 15 C 2.225696 1.884310 2.149260 0
M  V30 16 C 1.456566 2.824078 3.024922 0
M  V30 17 C 2.424669 0.587530 2.902178 0
M  V30 18 C -0.732263 -0.991759 -1.110606 0
M  V30 19 C -1.271232 -2.181959 -0.681632 0
M  V30 20 H -2.758558 -4.072923 3.765530 0
M  V30 21 H -2.976252 -2.326876 3.509438 0
M  V30 22 H -1.308954 -3.029122 3.892214 0
M  V30 23 H -0.302281 -4.245089 2.140713 0
M  V30 24 H -1.790907 -5.296341 2.081821 0
M  V30 25 H -2.151413 -4.543925 -0.293265 0
M  V30 26 H -0.517377 -5.378889 -0.107386 0
M  V30 27 H 1.431326 -3.986003 -0.095772 0
M  V30 28 H 2.529151 -1.988655 -0.819257 0
M  V30 29 H 0.617878 1.488393 -3.001402 0
M  V30 30 H 2.129203 1.995284 -2.225756 0
M  V30 31 H -0.585660 2.054747 -0.763496 0
M  V30 32 H -0.723181 3.543869 -2.258318 0
M  V30 33 H 2.189729 3.158525 -0.272077 0
M  V30 34 H 0.736945 3.522114 0.695618 0
M  V30 35 H 2.226990 0.980818 0.381898 0
M  V30 36 H 3.223087 2.296970 1.937704 0
M  V30 37 H 0.515610 2.333641 3.353573 0
M  V30 38 H 1.292088 3.825142 2.630199 0
M  V30 39 H 2.071379 2.938059 3.963157 0
M  V30 40 H 2.691972 0.763965 3.981582 0
M  V30 41 H 1.497989 0.001777 2.820397 0
M  V30 42 H 3.235363 -0.011573 2.396734 0
M  V30 43 H -1.249053 -0.097739 -1.422333 0
M  V30 44 H -2.345537 -2.184322 -0.661092 0
M  V30 END ATOM
M  V30 BEGIN BOND
M  V30 1 1 1 2
M  V30 2 1 2 3
M  V30 3 1 3 4
M  V30 4 1 4 5
M  V30 5 2 5 6
M  V30 6 1 6 7
M  V30 7 2 7 8
M  V30 8 1 8 9
M  V30 9 1 9 10
M  V30 10 1 10 11
M  V30 11 1 11 12
M  V30 12 1 11 13
M  V30 13 1 13 14
M  V30 14 1 14 15
M  V30 15 1 15 16
M  V30 16 1 15 17
M  V30 17 1 8 18
M  V30 18 2 18 19
M  V30 19 1 19 5
M  V30 20 1 1 20
M  V30 21 1 1 21
M  V30 22 1 1 22
M  V30 23 1 3 23
M  V30 24 1 3 24
M  V30 25 1 4 25
M  V30 26 1 4 26
M  V30 27 1 6 27
M  V30 28 1 7 28
M  V30 29 1 10 29
M  V30 30 1 10 30
M  V30 31 1 11 31
M  V30 32 1 12 32
M  V30 33 1 13 33
M  V30 34 1 13 34
M  V30 35 1 14 35
M  V30 36 1 15 36
M  V30 37 1 16 37
M  V30 38 1 16 38
M  V30 39 1 16 39
M  V30 40 1 17 40
M  V30 41 1 17 41
M  V30 42 1 17 42
M  V30 43 1 18 43
M  V30 44 1 19 44
M  V30 END BOND
M  V30 END CTAB
M  END
>  <Dataset>  (610) 
OralDrugs

>  <Ligand_Instance>  (610) 
nan

>  <PDB_ID>  (610) 
nan

>  <Standardized_SMILES>  (610) 
COCCc1ccc(OCC(O)CNC(C)C)cc1

>  <Name>  (610) 
Metoprolol

>  <Pocket>  (610) 
nan

>  <ATP_Site>  (610) 
nan

>  <Peripheral>  (610) 
nan

>  <Num_H_Atoms_ProtBoundConf>  (610) 
nan

>  <Num_Resolved_Atoms>  (610) 
nan

>  <Num_Not_Resolved_Atoms>  (610) 
nan

$$$$
CHEMBL137
     RDKit          3D

  0  0  0  0  0  0  0  0  0  0999 V3000
M  V30 BEGIN CTAB
M  V30 COUNTS 21 21 0 0 0
M  V30 BEGIN ATOM
M  V30 1 C -0.365860 0.287683 3.124206 0
M  V30 2 C 0.732046 -0.223717 2.263105 0
M  V30 3 N 1.638985 -1.099513 2.729323 0
M  V30 4 C 2.527981 -1.416211 1.779206 0
M  V30 5 C 2.116890 -0.680574 0.688291 0
M  V30 6 N 2.687763 -0.619689 -0.608120 0 CHG=1 VAL=4
M  V30 7 O 3.693307 -1.234124 -1.017286 0
M  V30 8 O 2.357127 0.073390 -1.748955 0 CHG=-1 VAL=1
M  V30 9 N 1.020425 0.054992 0.964207 0
M  V30 10 C 0.270975 0.948345 0.138420 0
M  V30 11 C -0.858075 0.306827 -0.627348 0
M  V30 12 O -1.464887 1.331952 -1.368618 0
M  V30 13 H -1.263094 -0.353409 3.082070 0
M  V30 14 H -0.014263 0.407406 4.183590 0
M  V30 15 H -0.725404 1.300325 2.794275 0
M  V30 16 H 3.396824 -2.056815 1.710531 0
M  V30 17 H 0.941342 1.497814 -0.538299 0
M  V30 18 H -0.221145 1.732322 0.783680 0
M  V30 19 H -0.521379 -0.464501 -1.333525 0
M  V30 20 H -1.604353 -0.114630 0.076727 0
M  V30 21 H -2.297363 1.607293 -0.906926 0
M  V30 END ATOM
M  V30 BEGIN BOND
M  V30 1 1 1 2
M  V30 2 2 2 3
M  V30 3 1 3 4
M  V30 4 2 4 5
M  V30 5 1 5 6
M  V30 6 2 6 7
M  V30 7 1 6 8
M  V30 8 1 5 9
M  V30 9 1 9 10
M  V30 10 1 10 11
M  V30 11 1 11 12
M  V30 12 1 9 2
M  V30 13 1 1 13
M  V30 14 1 1 14
M  V30 15 1 1 15
M  V30 16 1 4 16
M  V30 17 1 10 17
M  V30 18 1 10 18
M  V30 19 1 11 19
M  V30 20 1 11 20
M  V30 21 1 12 21
M  V30 END BOND
M  V30 END CTAB
M  END
>  <Dataset>  (611) 
OralDrugs

>  <Ligand_Instance>  (611) 
nan

>  <PDB_ID>  (611) 
nan

>  <Standardized_SMILES>  (611) 
Cc1ncc([N+](=O)[O-])n1CCO

>  <Name>  (611) 
Metronidazole

>  <Pocket>  (611) 
nan

>  <ATP_Site>  (611) 
nan

>  <Peripheral>  (611) 
nan

>  <Num_H_Atoms_ProtBoundConf>  (611) 
nan

>  <Num_Resolved_Atoms>  (611) 
nan

>  <Num_Not_Resolved_Atoms>  (611) 
nan

$$$$
CHEMBL934
     RDKit          3D

  0  0  0  0  0  0  0  0  0  0999 V3000
M  V30 BEGIN CTAB
M  V30 COUNTS 31 32 0 0 0
M  V30 BEGIN ATOM
M  V30 1 C -1.770507 -0.796188 0.579989 0
M  V30 2 C -0.384538 -0.520468 1.127358 0
M  V30 3 C -0.123078 -1.467289 2.262305 0
M  V30 4 C 0.560971 -0.767721 0.030851 0
M  V30 5 O 1.036210 0.356049 -0.262045 0
M  V30 6 C 0.946167 -1.984172 -0.646200 0
M  V30 7 C 0.508972 -3.264026 -0.383172 0
M  V30 8 C 0.913851 -4.385037 -1.075997 0
M  V30 9 C 1.819045 -4.171637 -2.094779 0
M  V30 10 N 2.260049 -2.931536 -2.369640 0
M  V30 11 C 1.850201 -1.853433 -1.679537 0
M  V30 12 C -0.321354 0.883069 1.621337 0
M  V30 13 C 0.846989 1.554356 1.900191 0
M  V30 14 C 0.894092 2.855803 2.353963 0
M  V30 15 C -0.267965 3.552224 2.550616 0
M  V30 16 N -1.426048 2.922578 2.287005 0
M  V30 17 C -1.453558 1.657698 1.846602 0
M  V30 18 H -2.062533 0.129977 0.037364 0
M  V30 19 H -1.713266 -1.668449 -0.101592 0
M  V30 20 H -2.512306 -1.052022 1.361509 0
M  V30 21 H 0.824339 -2.024782 2.104992 0
M  V30 22 H -0.028996 -0.928147 3.239581 0
M  V30 23 H -0.960764 -2.185162 2.335053 0
M  V30 24 H -0.188294 -3.393955 0.417014 0
M  V30 25 H 0.502745 -5.359507 -0.784384 0
M  V30 26 H 2.156351 -5.033171 -2.657875 0
M  V30 27 H 2.285780 -0.911655 -2.006165 0
M  V30 28 H 1.799112 1.073724 1.777643 0
M  V30 29 H 1.827772 3.361558 2.565889 0
M  V30 30 H -0.231724 4.570373 2.905534 0
M  V30 31 H -2.433077 1.256634 1.672055 0
M  V30 END ATOM
M  V30 BEGIN BOND
M  V30 1 1 1 2
M  V30 2 1 2 3
M  V30 3 1 2 4
M  V30 4 2 4 5
M  V30 5 1 4 6
M  V30 6 2 6 7
M  V30 7 1 7 8
M  V30 8 2 8 9
M  V30 9 1 9 10
M  V30 10 2 10 11
M  V30 11 1 2 12
M  V30 12 2 12 13
M  V30 13 1 13 14
M  V30 14 2 14 15
M  V30 15 1 15 16
M  V30 16 2 16 17
M  V30 17 1 11 6
M  V30 18 1 17 12
M  V30 19 1 1 18
M  V30 20 1 1 19
M  V30 21 1 1 20
M  V30 22 1 3 21
M  V30 23 1 3 22
M  V30 24 1 3 23
M  V30 25 1 7 24
M  V30 26 1 8 25
M  V30 27 1 9 26
M  V30 28 1 11 27
M  V30 29 1 13 28
M  V30 30 1 14 29
M  V30 31 1 15 30
M  V30 32 1 17 31
M  V30 END BOND
M  V30 END CTAB
M  END
>  <Dataset>  (612) 
OralDrugs

>  <Ligand_Instance>  (612) 
nan

>  <PDB_ID>  (612) 
nan

>  <Standardized_SMILES>  (612) 
CC(C)(C(=O)c1cccnc1)c1cccnc1

>  <Name>  (612) 
Metyrapone

>  <Pocket>  (612) 
nan

>  <ATP_Site>  (612) 
nan

>  <Peripheral>  (612) 
nan

>  <Num_H_Atoms_ProtBoundConf>  (612) 
nan

>  <Num_Resolved_Atoms>  (612) 
nan

>  <Num_Not_Resolved_Atoms>  (612) 
nan

$$$$
CHEMBL1200862
     RDKit          3D

  0  0  0  0  0  0  0  0  0  0999 V3000
M  V30 BEGIN CTAB
M  V30 COUNTS 27 27 0 0 0
M  V30 BEGIN ATOM
M  V30 1 C 0.183802 0.153608 2.802921 0
M  V30 2 C -0.751562 0.566814 1.702683 0 CFG=2
M  V30 3 N -1.821274 -0.409687 1.659674 0
M  V30 4 C -0.107434 0.635719 0.356339 0
M  V30 5 C 0.472441 -0.627261 -0.125286 0
M  V30 6 C 1.794271 -0.976605 0.143059 0
M  V30 7 C 2.383629 -2.153153 -0.288614 0
M  V30 8 C 1.628442 -3.047690 -1.032849 0
M  V30 9 O 2.201910 -4.227865 -1.471979 0
M  V30 10 C 0.312142 -2.753304 -1.328959 0
M  V30 11 C -0.226412 -1.566929 -0.874416 0
M  V30 12 C -1.301899 1.929656 1.982610 0
M  V30 13 O -2.513848 2.199137 2.156683 0
M  V30 14 O -0.345757 2.940911 2.043465 0
M  V30 15 H 0.282145 -0.945508 2.918625 0
M  V30 16 H 1.168124 0.658144 2.740185 0
M  V30 17 H -0.258838 0.512705 3.758312 0
M  V30 18 H -1.369050 -1.342063 1.523996 0
M  V30 19 H -2.440078 -0.239305 0.843197 0
M  V30 20 H -0.940140 0.894817 -0.359889 0
M  V30 21 H 0.609458 1.468953 0.245931 0
M  V30 22 H 2.400302 -0.295083 0.720685 0
M  V30 23 H 3.421190 -2.364015 -0.043757 0
M  V30 24 H 3.186515 -4.254631 -1.684802 0
M  V30 25 H -0.275709 -3.455515 -1.911449 0
M  V30 26 H -1.260211 -1.366943 -1.123837 0
M  V30 27 H -0.586498 3.920731 2.125705 0
M  V30 END ATOM
M  V30 BEGIN BOND
M  V30 1 1 1 2
M  V30 2 1 2 3 CFG=3
M  V30 3 1 2 4
M  V30 4 1 4 5
M  V30 5 2 5 6
M  V30 6 1 6 7
M  V30 7 2 7 8
M  V30 8 1 8 9
M  V30 9 1 8 10
M  V30 10 2 10 11
M  V30 11 1 2 12
M  V30 12 2 12 13
M  V30 13 1 12 14
M  V30 14 1 11 5
M  V30 15 1 1 15
M  V30 16 1 1 16
M  V30 17 1 1 17
M  V30 18 1 3 18
M  V30 19 1 3 19
M  V30 20 1 4 20
M  V30 21 1 4 21
M  V30 22 1 6 22
M  V30 23 1 7 23
M  V30 24 1 9 24
M  V30 25 1 10 25
M  V30 26 1 11 26
M  V30 27 1 14 27
M  V30 END BOND
M  V30 END CTAB
M  END
>  <Dataset>  (613) 
OralDrugs

>  <Ligand_Instance>  (613) 
nan

>  <PDB_ID>  (613) 
nan

>  <Standardized_SMILES>  (613) 
C[C@](N)(Cc1ccc(O)cc1)C(=O)O

>  <Name>  (613) 
Metyrosine

>  <Pocket>  (613) 
nan

>  <ATP_Site>  (613) 
nan

>  <Peripheral>  (613) 
nan

>  <Num_H_Atoms_ProtBoundConf>  (613) 
nan

>  <Num_Resolved_Atoms>  (613) 
nan

>  <Num_Not_Resolved_Atoms>  (613) 
nan

$$$$
CHEMBL558
     RDKit          3D

  0  0  0  0  0  0  0  0  0  0999 V3000
M  V30 BEGIN CTAB
M  V30 COUNTS 30 30 0 0 0
M  V30 BEGIN ATOM
M  V30 1 C 2.512473 -0.253801 2.630675 0
M  V30 2 C 1.019208 -0.301503 2.600480 0
M  V30 3 C 0.520725 -0.766301 3.826292 0
M  V30 4 C -0.836937 -0.895169 4.037683 0
M  V30 5 C -1.681813 -0.550407 3.001261 0
M  V30 6 C -1.190545 -0.095241 1.801752 0
M  V30 7 C -2.020754 0.308885 0.647409 0
M  V30 8 C 0.154090 0.046776 1.551202 0
M  V30 9 O 0.941574 0.458508 0.502451 0
M  V30 10 C 1.438029 -0.443679 -0.447809 0
M  V30 11 C 0.437764 -1.189736 -1.252669 0
M  V30 12 C 1.071022 -2.267571 -2.117249 0
M  V30 13 N -0.417250 -0.351825 -2.070241 0
M  V30 14 H 2.883462 -1.278638 2.760040 0
M  V30 15 H 2.802443 0.317086 3.554749 0
M  V30 16 H 2.906967 0.279734 1.742682 0
M  V30 17 H 1.106129 -1.054910 4.681723 0
M  V30 18 H -1.298085 -1.243612 4.946847 0
M  V30 19 H -2.768142 -0.596404 3.013552 0
M  V30 20 H -2.271744 -0.564612 0.013866 0
M  V30 21 H -1.595749 1.119239 0.049626 0
M  V30 22 H -2.985118 0.716722 1.052477 0
M  V30 23 H 2.127831 -1.196527 0.024853 0
M  V30 24 H 2.110067 0.119315 -1.151337 0
M  V30 25 H -0.249773 -1.735955 -0.573892 0
M  V30 26 H 0.258495 -2.694648 -2.754631 0
M  V30 27 H 1.920620 -1.916088 -2.715059 0
M  V30 28 H 1.343854 -3.100441 -1.427513 0
M  V30 29 H -1.140354 -0.978276 -2.489708 0
M  V30 30 H 0.104387 0.091937 -2.856605 0
M  V30 END ATOM
M  V30 BEGIN BOND
M  V30 1 1 1 2
M  V30 2 2 2 3
M  V30 3 1 3 4
M  V30 4 2 4 5
M  V30 5 1 5 6
M  V30 6 1 6 7
M  V30 7 2 6 8
M  V30 8 1 8 9
M  V30 9 1 9 10
M  V30 10 1 10 11
M  V30 11 1 11 12
M  V30 12 1 11 13
M  V30 13 1 8 2
M  V30 14 1 1 14
M  V30 15 1 1 15
M  V30 16 1 1 16
M  V30 17 1 3 17
M  V30 18 1 4 18
M  V30 19 1 5 19
M  V30 20 1 7 20
M  V30 21 1 7 21
M  V30 22 1 7 22
M  V30 23 1 10 23
M  V30 24 1 10 24
M  V30 25 1 11 25
M  V30 26 1 12 26
M  V30 27 1 12 27
M  V30 28 1 12 28
M  V30 29 1 13 29
M  V30 30 1 13 30
M  V30 END BOND
M  V30 END CTAB
M  END
>  <Dataset>  (614) 
OralDrugs

>  <Ligand_Instance>  (614) 
nan

>  <PDB_ID>  (614) 
nan

>  <Standardized_SMILES>  (614) 
Cc1cccc(C)c1OCC(C)N

>  <Name>  (614) 
Mexiletine

>  <Pocket>  (614) 
nan

>  <ATP_Site>  (614) 
nan

>  <Peripheral>  (614) 
nan

>  <Num_H_Atoms_ProtBoundConf>  (614) 
nan

>  <Num_Resolved_Atoms>  (614) 
nan

>  <Num_Not_Resolved_Atoms>  (614) 
nan

$$$$
CHEMBL655
     RDKit          3D

  0  0  0  0  0  0  0  0  0  0999 V3000
M  V30 BEGIN CTAB
M  V30 COUNTS 36 39 0 0 0
M  V30 BEGIN ATOM
M  V30 1 C 1.584858 -4.294878 1.665695 0
M  V30 2 C 2.283497 -2.999211 1.527173 0
M  V30 3 N 3.444897 -2.725428 2.199982 0
M  V30 4 C 3.860008 -1.470261 1.958209 0
M  V30 5 C 2.954065 -0.871590 1.094455 0
M  V30 6 N 2.040880 -1.847525 0.879011 0
M  V30 7 C 0.878010 -1.750385 0.037971 0
M  V30 8 C 0.623909 -2.967820 -0.542360 0
M  V30 9 C -0.522761 -2.988096 -1.349174 0
M  V30 10 C -1.316572 -1.854945 -1.530984 0
M  V30 11 Cl -2.739032 -1.878999 -2.530195 0
M  V30 12 C -1.014275 -0.650686 -0.925614 0
M  V30 13 C 0.105363 -0.591088 -0.124299 0
M  V30 14 C 0.381246 0.753199 0.444861 0
M  V30 15 C -0.842994 1.516775 0.658024 0
M  V30 16 C -0.972597 2.622454 -0.148965 0
M  V30 17 C -2.065732 3.462493 -0.086689 0
M  V30 18 C -3.067744 3.169380 0.830937 0
M  V30 19 C -2.950365 2.063348 1.646513 0
M  V30 20 C -1.837650 1.223202 1.571029 0
M  V30 21 F -1.649479 0.125383 2.331878 0
M  V30 22 N 1.611976 1.143284 0.688841 0
M  V30 23 C 2.899846 0.524771 0.523134 0
M  V30 24 H 0.474287 -4.246755 1.603276 0
M  V30 25 H 1.674627 -4.558285 2.778428 0
M  V30 26 H 2.062333 -5.157848 1.210126 0
M  V30 27 H 4.715818 -0.914161 2.306633 0
M  V30 28 H 1.200665 -3.858613 -0.498313 0
M  V30 29 H -0.871668 -3.876009 -1.884220 0
M  V30 30 H -1.545833 0.277493 -0.991594 0
M  V30 31 H -0.242109 2.913285 -0.880385 0
M  V30 32 H -2.201873 4.337539 -0.702549 0
M  V30 33 H -3.956687 3.766146 0.951474 0
M  V30 34 H -3.692663 1.791515 2.370593 0
M  V30 35 H 3.314124 0.582250 -0.490239 0
M  V30 36 H 3.593291 1.103196 1.202319 0
M  V30 END ATOM
M  V30 BEGIN BOND
M  V30 1 1 1 2
M  V30 2 2 2 3
M  V30 3 1 3 4
M  V30 4 2 4 5
M  V30 5 1 5 6
M  V30 6 1 6 7
M  V30 7 2 7 8
M  V30 8 1 8 9
M  V30 9 2 9 10
M  V30 10 1 10 11
M  V30 11 1 10 12
M  V30 12 2 12 13
M  V30 13 1 13 14
M  V30 14 1 14 15
M  V30 15 2 15 16
M  V30 16 1 16 17
M  V30 17 2 17 18
M  V30 18 1 18 19
M  V30 19 2 19 20
M  V30 20 1 20 21
M  V30 21 2 14 22
M  V30 22 1 22 23
M  V30 23 1 6 2
M  V30 24 1 13 7
M  V30 25 1 20 15
M  V30 26 1 23 5
M  V30 27 1 1 24
M  V30 28 1 1 25
M  V30 29 1 1 26
M  V30 30 1 4 27
M  V30 31 1 8 28
M  V30 32 1 9 29
M  V30 33 1 12 30
M  V30 34 1 16 31
M  V30 35 1 17 32
M  V30 36 1 18 33
M  V30 37 1 19 34
M  V30 38 1 23 35
M  V30 39 1 23 36
M  V30 END BOND
M  V30 END CTAB
M  END
>  <Dataset>  (615) 
OralDrugs

>  <Ligand_Instance>  (615) 
nan

>  <PDB_ID>  (615) 
nan

>  <Standardized_SMILES>  (615) 
Cc1ncc2n1-c1ccc(Cl)cc1C(c1ccccc1F)=NC2

>  <Name>  (615) 
Midazolam

>  <Pocket>  (615) 
nan

>  <ATP_Site>  (615) 
nan

>  <Peripheral>  (615) 
nan

>  <Num_H_Atoms_ProtBoundConf>  (615) 
nan

>  <Num_Resolved_Atoms>  (615) 
nan

>  <Num_Not_Resolved_Atoms>  (615) 
nan

$$$$
CHEMBL608533
     RDKit          3D

  0  0  0  0  0  0  0  0  0  0999 V3000
M  V30 BEGIN CTAB
M  V30 COUNTS 73 81 0 0 0
M  V30 BEGIN ATOM
M  V30 1 C 2.778830 0.726575 2.813078 0
M  V30 2 O 2.026058 0.364794 1.716622 0
M  V30 3 C 0.998187 1.211210 1.395933 0 CFG=2
M  V30 4 C -0.324786 0.579550 1.771156 0 CFG=2
M  V30 5 N -0.268758 -0.817645 1.439798 0
M  V30 6 C -0.238433 -1.878479 0.462894 0
M  V30 7 C -0.231843 -1.282248 2.816834 0
M  V30 8 O -0.236830 -0.892198 4.013667 0
M  V30 9 C -0.160207 -2.711330 3.197495 0
M  V30 10 C 1.146067 -3.163497 2.982857 0
M  V30 11 C 1.499572 -4.485685 3.261843 0
M  V30 12 C 0.536649 -5.338427 3.753218 0
M  V30 13 C -0.737032 -4.894103 3.961280 0
M  V30 14 C -1.117008 -3.595051 3.695612 0
M  V30 15 C -1.498650 1.341544 1.314493 0
M  V30 16 C -1.268924 2.393412 0.263272 0 CFG=1
M  V30 17 O -0.041836 2.701642 -0.070348 0
M  V30 18 C 1.037859 1.822979 0.036171 0 CFG=1
M  V30 19 C 2.162337 2.827554 0.124464 0
M  V30 20 N 1.071846 0.910042 -1.063270 0
M  V30 21 C 2.042190 0.203496 -1.638609 0
M  V30 22 C 3.361766 0.075387 -1.279232 0
M  V30 23 C 4.282523 -0.692437 -1.952974 0
M  V30 24 C 3.879452 -1.404080 -3.085160 0
M  V30 25 C 2.555646 -1.268275 -3.434867 0
M  V30 26 C 1.645610 -0.503169 -2.761985 0
M  V30 27 C 0.306086 -0.215173 -2.897625 0
M  V30 28 C -0.629335 -0.609578 -3.829395 0
M  V30 29 C -1.928976 -0.166345 -3.755947 0
M  V30 30 C -2.274453 0.670027 -2.739175 0
M  V30 31 C -3.467702 1.237739 -2.404537 0
M  V30 32 C -4.755982 1.302329 -2.838070 0
M  V30 33 C -5.793067 2.000390 -2.260623 0
M  V30 34 C -5.485387 2.722000 -1.099755 0
M  V30 35 C -4.177503 2.692674 -0.607406 0
M  V30 36 C -3.209187 1.961415 -1.261021 0
M  V30 37 N -1.922511 1.825720 -0.939088 0
M  V30 38 C -1.309757 1.034636 -1.836303 0
M  V30 39 C 0.004773 0.617215 -1.877497 0
M  V30 40 C -2.656821 -0.726865 -4.841650 0
M  V30 41 O -3.818269 -0.683626 -5.266695 0
M  V30 42 N -1.773026 -1.536760 -5.601086 0
M  V30 43 C -0.459507 -1.508492 -5.004122 0
M  V30 44 H 3.285735 1.693105 2.767436 0
M  V30 45 H 3.575490 -0.032682 2.967784 0
M  V30 46 H 2.171884 0.665957 3.765209 0
M  V30 47 H 1.085643 2.071064 2.137052 0
M  V30 48 H -0.323074 0.595145 2.901841 0
M  V30 49 H 0.681967 -1.883476 -0.171243 0
M  V30 50 H -0.255705 -2.881865 0.930012 0
M  V30 51 H -1.165740 -1.866965 -0.176907 0
M  V30 52 H 1.997054 -2.619352 2.607275 0
M  V30 53 H 2.468563 -4.922011 3.130476 0
M  V30 54 H 0.708452 -6.378056 3.999722 0
M  V30 55 H -1.585107 -5.479711 4.347202 0
M  V30 56 H -2.053966 -3.068842 3.793124 0
M  V30 57 H -2.003131 1.888416 2.169094 0
M  V30 58 H -2.281307 0.598092 1.030574 0
M  V30 59 H -1.835803 3.326503 0.459714 0
M  V30 60 H 2.233663 3.507572 -0.738303 0
M  V30 61 H 1.791985 3.566810 0.918861 0
M  V30 62 H 3.080773 2.517958 0.591577 0
M  V30 63 H 3.707159 0.603057 -0.410521 0
M  V30 64 H 5.326154 -0.795333 -1.671576 0
M  V30 65 H 4.535664 -2.030981 -3.670865 0
M  V30 66 H 2.158449 -1.793995 -4.310026 0
M  V30 67 H -5.022405 0.767244 -3.714646 0
M  V30 68 H -6.792913 1.997355 -2.674062 0
M  V30 69 H -6.256691 3.290930 -0.597090 0
M  V30 70 H -3.936613 3.247467 0.287636 0
M  V30 71 H -1.877368 -2.118523 -6.457086 0
M  V30 72 H -0.093305 -2.510437 -4.723145 0
M  V30 73 H 0.221341 -1.008308 -5.727931 0
M  V30 END ATOM
M  V30 BEGIN BOND
M  V30 1 1 1 2
M  V30 2 1 2 3
M  V30 3 1 3 4
M  V30 4 1 4 5
M  V30 5 1 5 6
M  V30 6 1 5 7
M  V30 7 2 7 8
M  V30 8 1 7 9
M  V30 9 2 9 10
M  V30 10 1 10 11
M  V30 11 2 11 12
M  V30 12 1 12 13
M  V30 13 2 13 14
M  V30 14 1 4 15
M  V30 15 1 15 16
M  V30 16 1 16 17
M  V30 17 1 17 18
M  V30 18 1 18 19 CFG=1
M  V30 19 1 18 20
M  V30 20 1 20 21
M  V30 21 2 21 22
M  V30 22 1 22 23
M  V30 23 2 23 24
M  V30 24 1 24 25
M  V30 25 2 25 26
M  V30 26 1 26 27
M  V30 27 2 27 28
M  V30 28 1 28 29
M  V30 29 2 29 30
M  V30 30 1 30 31
M  V30 31 2 31 32
M  V30 32 1 32 33
M  V30 33 2 33 34
M  V30 34 1 34 35
M  V30 35 2 35 36
M  V30 36 1 36 37
M  V30 37 1 37 38
M  V30 38 2 38 39
M  V30 39 1 29 40
M  V30 40 2 40 41
M  V30 41 1 40 42
M  V30 42 1 42 43
M  V30 43 1 18 3
M  V30 44 1 39 20
M  V30 45 1 14 9
M  V30 46 1 37 16
M  V30 47 1 26 21
M  V30 48 1 39 27
M  V30 49 1 43 28
M  V30 50 1 38 30
M  V30 51 1 36 31
M  V30 52 1 1 44
M  V30 53 1 1 45
M  V30 54 1 1 46
M  V30 55 1 3 47 CFG=1
M  V30 56 1 4 48 CFG=1
M  V30 57 1 6 49
M  V30 58 1 6 50
M  V30 59 1 6 51
M  V30 60 1 10 52
M  V30 61 1 11 53
M  V30 62 1 12 54
M  V30 63 1 13 55
M  V30 64 1 14 56
M  V30 65 1 15 57
M  V30 66 1 15 58
M  V30 67 1 16 59 CFG=1
M  V30 68 1 19 60
M  V30 69 1 19 61
M  V30 70 1 19 62
M  V30 71 1 22 63
M  V30 72 1 23 64
M  V30 73 1 24 65
M  V30 74 1 25 66
M  V30 75 1 32 67
M  V30 76 1 33 68
M  V30 77 1 34 69
M  V30 78 1 35 70
M  V30 79 1 42 71
M  V30 80 1 43 72
M  V30 81 1 43 73
M  V30 END BOND
M  V30 END CTAB
M  END
>  <Dataset>  (616) 
OralDrugs

>  <Ligand_Instance>  (616) 
nan

>  <PDB_ID>  (616) 
nan

>  <Standardized_SMILES>  (616) 
CO[C@@H]1[C@H](N(C)C(=O)c2ccccc2)C[C@H]2O[C@]1(C)n1c3ccccc3c3c4c(c5c6ccccc6n2c5c31)C(=O)NC4

>  <Name>  (616) 
Midostaurin

>  <Pocket>  (616) 
nan

>  <ATP_Site>  (616) 
nan

>  <Peripheral>  (616) 
nan

>  <Num_H_Atoms_ProtBoundConf>  (616) 
nan

>  <Num_Resolved_Atoms>  (616) 
nan

>  <Num_Not_Resolved_Atoms>  (616) 
nan

$$$$
CHEMBL1276308
     RDKit          3D

  0  0  0  0  0  0  0  0  0  0999 V3000
M  V30 BEGIN CTAB
M  V30 COUNTS 67 71 0 0 0
M  V30 BEGIN ATOM
M  V30 1 C 5.210501 0.451517 3.035234 0
M  V30 2 C 4.572140 0.468782 1.701179 0
M  V30 3 C 4.032924 0.477513 0.616073 0
M  V30 4 C 3.406611 0.499944 -0.694644 0 CFG=2
M  V30 5 O 4.147789 -0.268218 -1.622339 0
M  V30 6 C 3.410081 1.901408 -1.253548 0
M  V30 7 C 1.971862 2.162958 -1.657767 0
M  V30 8 C 1.225314 1.372476 -0.657386 0 CFG=1
M  V30 9 C -0.198569 1.027895 -0.962983 0 CFG=2
M  V30 10 C -0.939269 2.266958 -1.381955 0
M  V30 11 C -2.419495 1.980105 -1.284564 0
M  V30 12 C -2.672682 1.785539 0.189401 0
M  V30 13 C -3.639562 2.507264 0.736244 0
M  V30 14 C -3.837518 2.275745 2.162021 0
M  V30 15 O -4.917245 2.679037 2.696410 0
M  V30 16 C -2.790272 1.582939 2.955008 0
M  V30 17 C -2.403168 0.335541 2.170775 0
M  V30 18 C -1.835328 0.813094 0.907176 0
M  V30 19 C -0.689108 0.465446 0.349529 0
M  V30 20 C 0.151414 -0.520162 1.025729 0 CFG=1
M  V30 21 C -0.482705 -1.884927 1.005824 0
M  V30 22 C -1.166720 -2.425025 -0.060722 0
M  V30 23 C -1.719014 -3.686781 -0.051246 0
M  V30 24 C -1.596013 -4.473040 1.072594 0
M  V30 25 N -2.168966 -5.775239 1.075226 0
M  V30 26 C -2.867752 -6.231440 -0.115773 0
M  V30 27 C -2.047370 -6.615411 2.252600 0
M  V30 28 C -0.927730 -4.009272 2.182545 0
M  V30 29 C -0.403228 -2.744052 2.102653 0
M  V30 30 C 1.554010 -0.675638 0.559618 0
M  V30 31 C 1.966994 0.049550 -0.661148 0 CFG=2
M  V30 32 C 1.731192 -0.765033 -1.909774 0
M  V30 33 H 6.326349 0.465060 2.921568 0
M  V30 34 H 4.828921 1.286813 3.633458 0
M  V30 35 H 4.980809 -0.494950 3.585213 0
M  V30 36 H 5.073795 -0.315222 -1.269637 0
M  V30 37 H 4.094526 2.038451 -2.117065 0
M  V30 38 H 3.671371 2.599259 -0.415920 0
M  V30 39 H 1.726983 3.257984 -1.555449 0
M  V30 40 H 1.754828 1.813959 -2.668610 0
M  V30 41 H 1.262963 1.803696 0.368960 0
M  V30 42 H -0.351311 0.251531 -1.717864 0
M  V30 43 H -0.662879 3.101732 -0.696479 0
M  V30 44 H -0.682843 2.454350 -2.424268 0
M  V30 45 H -3.040269 2.780694 -1.692332 0
M  V30 46 H -2.619634 0.985094 -1.767560 0
M  V30 47 H -4.220208 3.204965 0.149150 0
M  V30 48 H -1.889912 2.238358 2.946864 0
M  V30 49 H -3.130991 1.337636 3.968678 0
M  V30 50 H -3.374800 -0.181237 1.939128 0
M  V30 51 H -1.823101 -0.364565 2.751991 0
M  V30 52 H 0.239870 -0.197041 2.107581 0
M  V30 53 H -1.275439 -1.818948 -0.948782 0
M  V30 54 H -2.237389 -4.018409 -0.941812 0
M  V30 55 H -3.781413 -5.637366 -0.222304 0
M  V30 56 H -3.030914 -7.325714 -0.103712 0
M  V30 57 H -2.189773 -6.057213 -0.992860 0
M  V30 58 H -2.596774 -6.149089 3.117050 0
M  V30 59 H -0.964910 -6.713115 2.534949 0
M  V30 60 H -2.413268 -7.637633 2.027788 0
M  V30 61 H -0.811777 -4.597395 3.080686 0
M  V30 62 H 0.122091 -2.388715 2.984948 0
M  V30 63 H 2.314351 -0.400159 1.349581 0
M  V30 64 H 1.805446 -1.763336 0.374831 0
M  V30 65 H 1.684418 -0.195627 -2.833968 0
M  V30 66 H 2.657305 -1.408077 -2.011908 0
M  V30 67 H 0.905225 -1.485460 -1.839110 0
M  V30 END ATOM
M  V30 BEGIN BOND
M  V30 1 1 1 2
M  V30 2 3 2 3
M  V30 3 1 4 3 CFG=1
M  V30 4 1 4 5
M  V30 5 1 4 6
M  V30 6 1 6 7
M  V30 7 1 7 8
M  V30 8 1 8 9
M  V30 9 1 9 10
M  V30 10 1 10 11
M  V30 11 1 11 12
M  V30 12 2 12 13
M  V30 13 1 13 14
M  V30 14 2 14 15
M  V30 15 1 14 16
M  V30 16 1 16 17
M  V30 17 1 17 18
M  V30 18 2 18 19
M  V30 19 1 19 20
M  V30 20 1 20 21
M  V30 21 2 21 22
M  V30 22 1 22 23
M  V30 23 2 23 24
M  V30 24 1 24 25
M  V30 25 1 25 26
M  V30 26 1 25 27
M  V30 27 1 24 28
M  V30 28 2 28 29
M  V30 29 1 20 30
M  V30 30 1 30 31
M  V30 31 1 31 32 CFG=3
M  V30 32 1 31 4
M  V30 33 1 31 8
M  V30 34 1 19 9
M  V30 35 1 29 21
M  V30 36 1 18 12
M  V30 37 1 1 33
M  V30 38 1 1 34
M  V30 39 1 1 35
M  V30 40 1 5 36
M  V30 41 1 6 37
M  V30 42 1 6 38
M  V30 43 1 7 39
M  V30 44 1 7 40
M  V30 45 1 8 41 CFG=1
M  V30 46 1 9 42 CFG=3
M  V30 47 1 10 43
M  V30 48 1 10 44
M  V30 49 1 11 45
M  V30 50 1 11 46
M  V30 51 1 13 47
M  V30 52 1 16 48
M  V30 53 1 16 49
M  V30 54 1 17 50
M  V30 55 1 17 51
M  V30 56 1 20 52 CFG=1
M  V30 57 1 22 53
M  V30 58 1 23 54
M  V30 59 1 26 55
M  V30 60 1 26 56
M  V30 61 1 26 57
M  V30 62 1 27 58
M  V30 63 1 27 59
M  V30 64 1 27 60
M  V30 65 1 28 61
M  V30 66 1 29 62
M  V30 67 1 30 63
M  V30 68 1 30 64
M  V30 69 1 32 65
M  V30 70 1 32 66
M  V30 71 1 32 67
M  V30 END BOND
M  V30 END CTAB
M  END
>  <Dataset>  (617) 
OralDrugs

>  <Ligand_Instance>  (617) 
nan

>  <PDB_ID>  (617) 
nan

>  <Standardized_SMILES>  (617) 
CC#C[C@]1(O)CC[C@H]2[C@@H]3CCC4=CC(=O)CCC4=C3[C@@H](c3ccc(N(C)C)cc3)C[C@@]21C

>  <Name>  (617) 
Mifepristone

>  <Pocket>  (617) 
nan

>  <ATP_Site>  (617) 
nan

>  <Peripheral>  (617) 
nan

>  <Num_H_Atoms_ProtBoundConf>  (617) 
nan

>  <Num_Resolved_Atoms>  (617) 
nan

>  <Num_Not_Resolved_Atoms>  (617) 
nan

$$$$
CHEMBL110458
     RDKit          3D

  0  0  0  0  0  0  0  0  0  0999 V3000
M  V30 BEGIN CTAB
M  V30 COUNTS 24 24 0 0 0
M  V30 BEGIN ATOM
M  V30 1 O 0.876067 1.014454 3.782237 0
M  V30 2 C 1.102934 1.195592 2.434908 0
M  V30 3 C 1.237913 -0.153328 1.735166 0 CFG=1
M  V30 4 N 0.067027 -0.972129 1.861442 0
M  V30 5 C -0.093117 -1.856070 0.715301 0
M  V30 6 C -0.506659 -1.055528 -0.503387 0 CFG=2
M  V30 7 O -0.283757 -1.785060 -1.645307 0
M  V30 8 C 0.284703 0.238691 -0.548979 0 CFG=1
M  V30 9 O -0.544758 1.242212 -0.082559 0
M  V30 10 C 1.530389 0.035946 0.274916 0 CFG=1
M  V30 11 O 2.430502 1.095518 0.146980 0
M  V30 12 H -0.070774 1.258261 4.035164 0
M  V30 13 H 0.313849 1.818054 2.015175 0
M  V30 14 H 2.106822 1.682332 2.309565 0
M  V30 15 H 2.087746 -0.669839 2.207262 0
M  V30 16 H -0.794178 -0.432758 2.006297 0
M  V30 17 H -0.921053 -2.556064 0.929646 0
M  V30 18 H 0.824761 -2.413447 0.504384 0
M  V30 19 H -1.597486 -0.850159 -0.422060 0
M  V30 20 H 0.332742 -2.537138 -1.548726 0
M  V30 21 H 0.603630 0.458086 -1.579715 0
M  V30 22 H -1.454267 0.936833 0.146963 0
M  V30 23 H 2.029689 -0.868561 -0.134509 0
M  V30 24 H 3.289413 0.765848 0.513847 0
M  V30 END ATOM
M  V30 BEGIN BOND
M  V30 1 1 1 2
M  V30 2 1 2 3
M  V30 3 1 3 4
M  V30 4 1 4 5
M  V30 5 1 5 6
M  V30 6 1 6 7
M  V30 7 1 6 8
M  V30 8 1 8 9
M  V30 9 1 8 10
M  V30 10 1 10 11
M  V30 11 1 10 3
M  V30 12 1 1 12
M  V30 13 1 2 13
M  V30 14 1 2 14
M  V30 15 1 3 15 CFG=1
M  V30 16 1 4 16
M  V30 17 1 5 17
M  V30 18 1 5 18
M  V30 19 1 6 19 CFG=1
M  V30 20 1 7 20
M  V30 21 1 8 21 CFG=3
M  V30 22 1 9 22
M  V30 23 1 10 23 CFG=3
M  V30 24 1 11 24
M  V30 END BOND
M  V30 END CTAB
M  END
>  <Dataset>  (618) 
OralDrugs

>  <Ligand_Instance>  (618) 
nan

>  <PDB_ID>  (618) 
nan

>  <Standardized_SMILES>  (618) 
OC[C@H]1NC[C@H](O)[C@@H](O)[C@H]1O

>  <Name>  (618) 
Migalastat

>  <Pocket>  (618) 
nan

>  <ATP_Site>  (618) 
nan

>  <Peripheral>  (618) 
nan

>  <Num_H_Atoms_ProtBoundConf>  (618) 
nan

>  <Num_Resolved_Atoms>  (618) 
nan

>  <Num_Not_Resolved_Atoms>  (618) 
nan

$$$$
CHEMBL1561
     RDKit          3D

  0  0  0  0  0  0  0  0  0  0999 V3000
M  V30 BEGIN CTAB
M  V30 COUNTS 31 31 0 0 0
M  V30 BEGIN ATOM
M  V30 1 O -0.591797 0.899493 4.320253 0
M  V30 2 C 0.293158 0.438186 3.345094 0
M  V30 3 C -0.459604 -0.088344 2.143788 0
M  V30 4 N 0.388352 -0.582172 1.190905 0
M  V30 5 C 1.081300 -1.796409 1.340175 0
M  V30 6 C 0.312290 -2.823543 0.503199 0 CFG=2
M  V30 7 O 1.096336 -3.904789 0.192698 0
M  V30 8 C -0.247999 -2.102419 -0.699694 0 CFG=1
M  V30 9 O -1.560565 -1.684955 -0.536296 0
M  V30 10 C 0.559308 -0.906784 -1.125908 0 CFG=2
M  V30 11 O 1.767841 -1.336199 -1.631513 0
M  V30 12 C 0.723950 0.104060 0.015643 0 CFG=1
M  V30 13 C 0.016865 1.372672 -0.283599 0
M  V30 14 O -1.345695 1.245432 -0.447246 0
M  V30 15 H -0.213420 1.692851 4.752627 0
M  V30 16 H 0.976910 1.259880 3.004256 0
M  V30 17 H 0.866692 -0.398487 3.780702 0
M  V30 18 H -1.074449 -0.946847 2.560978 0
M  V30 19 H -1.215998 0.628582 1.799851 0
M  V30 20 H 2.079387 -1.708853 0.863747 0
M  V30 21 H 1.167477 -2.122634 2.388728 0
M  V30 22 H -0.554043 -3.116760 1.134550 0
M  V30 23 H 0.527722 -4.702997 -0.027460 0
M  V30 24 H -0.212925 -2.805840 -1.561485 0
M  V30 25 H -2.196320 -2.423522 -0.765702 0
M  V30 26 H 0.009694 -0.418043 -1.940917 0
M  V30 27 H 2.149192 -0.673794 -2.272123 0
M  V30 28 H 1.811834 0.328645 0.044433 0
M  V30 29 H 0.413419 1.740271 -1.254419 0
M  V30 30 H 0.300513 2.145640 0.459345 0
M  V30 31 H -1.714788 2.163364 -0.379147 0
M  V30 END ATOM
M  V30 BEGIN BOND
M  V30 1 1 1 2
M  V30 2 1 2 3
M  V30 3 1 3 4
M  V30 4 1 4 5
M  V30 5 1 5 6
M  V30 6 1 6 7
M  V30 7 1 6 8
M  V30 8 1 8 9
M  V30 9 1 8 10
M  V30 10 1 10 11
M  V30 11 1 10 12
M  V30 12 1 12 13
M  V30 13 1 13 14
M  V30 14 1 12 4
M  V30 15 1 1 15
M  V30 16 1 2 16
M  V30 17 1 2 17
M  V30 18 1 3 18
M  V30 19 1 3 19
M  V30 20 1 5 20
M  V30 21 1 5 21
M  V30 22 1 6 22 CFG=1
M  V30 23 1 7 23
M  V30 24 1 8 24 CFG=3
M  V30 25 1 9 25
M  V30 26 1 10 26 CFG=3
M  V30 27 1 11 27
M  V30 28 1 12 28 CFG=1
M  V30 29 1 13 29
M  V30 30 1 13 30
M  V30 31 1 14 31
M  V30 END BOND
M  V30 END CTAB
M  END
>  <Dataset>  (619) 
OralDrugs

>  <Ligand_Instance>  (619) 
nan

>  <PDB_ID>  (619) 
nan

>  <Standardized_SMILES>  (619) 
OCCN1C[C@H](O)[C@@H](O)[C@H](O)[C@H]1CO

>  <Name>  (619) 
Miglitol

>  <Pocket>  (619) 
nan

>  <ATP_Site>  (619) 
nan

>  <Peripheral>  (619) 
nan

>  <Num_H_Atoms_ProtBoundConf>  (619) 
nan

>  <Num_Resolved_Atoms>  (619) 
nan

>  <Num_Not_Resolved_Atoms>  (619) 
nan

$$$$
CHEMBL259209
     RDKit          3D

  0  0  0  0  0  0  0  0  0  0999 V3000
M  V30 BEGIN CTAB
M  V30 COUNTS 40 41 0 0 0
M  V30 BEGIN ATOM
M  V30 1 C -0.879172 -2.678139 -1.418122 0
M  V30 2 C -1.247218 -2.375035 -0.012964 0
M  V30 3 N -0.096338 -2.232537 0.898673 0
M  V30 4 C 0.225148 -3.585082 1.397780 0
M  V30 5 C 1.194334 -4.314766 0.533107 0
M  V30 6 C 0.694744 -1.144784 1.339634 0
M  V30 7 O 1.620999 -1.504884 2.162737 0
M  V30 8 C 0.788966 0.314332 1.147502 0
M  V30 9 C -0.126245 1.000804 0.167051 0
M  V30 10 C -0.328842 0.699136 -1.140348 0
M  V30 11 C -1.199323 1.354826 -1.958823 0
M  V30 12 C -1.945386 2.404164 -1.464831 0
M  V30 13 C -1.778058 2.753616 -0.140914 0
M  V30 14 C -0.887634 2.066863 0.658520 0
M  V30 15 C 2.217575 0.860684 0.964894 0
M  V30 16 C 1.384255 1.192522 2.171173 0
M  V30 17 C 1.976463 0.705203 3.460373 0
M  V30 18 N 2.471722 1.857323 4.232903 0
M  V30 19 H -1.315732 -3.652991 -1.768621 0
M  V30 20 H 0.214987 -2.791812 -1.530495 0
M  V30 21 H -1.284366 -1.934798 -2.158100 0
M  V30 22 H -1.846005 -1.418195 0.081266 0
M  V30 23 H -1.965419 -3.141881 0.337013 0
M  V30 24 H 0.745224 -3.409858 2.381799 0
M  V30 25 H -0.651831 -4.197320 1.583594 0
M  V30 26 H 1.719240 -5.039787 1.163668 0
M  V30 27 H 0.605849 -4.870597 -0.228771 0
M  V30 28 H 1.874034 -3.601866 0.010949 0
M  V30 29 H 0.262048 -0.103454 -1.522037 0
M  V30 30 H -1.275294 1.021819 -2.987429 0
M  V30 31 H -2.630769 2.910239 -2.134418 0
M  V30 32 H -2.392976 3.581512 0.174371 0
M  V30 33 H -0.882236 2.464293 1.663466 0
M  V30 34 H 2.440405 1.613137 0.217479 0
M  V30 35 H 3.036268 0.110977 1.069157 0
M  V30 36 H 1.031145 2.241541 2.221239 0
M  V30 37 H 1.313370 0.153648 4.119616 0
M  V30 38 H 2.896523 0.066867 3.306518 0
M  V30 39 H 2.367632 2.740844 3.650051 0
M  V30 40 H 1.855395 2.034989 5.057167 0
M  V30 END ATOM
M  V30 BEGIN BOND
M  V30 1 1 1 2
M  V30 2 1 2 3
M  V30 3 1 3 4
M  V30 4 1 4 5
M  V30 5 1 3 6
M  V30 6 2 6 7
M  V30 7 1 6 8
M  V30 8 1 8 9
M  V30 9 2 9 10
M  V30 10 1 10 11
M  V30 11 2 11 12
M  V30 12 1 12 13
M  V30 13 2 13 14
M  V30 14 1 8 15
M  V30 15 1 15 16
M  V30 16 1 16 17
M  V30 17 1 17 18
M  V30 18 1 16 8
M  V30 19 1 14 9
M  V30 20 1 1 19
M  V30 21 1 1 20
M  V30 22 1 1 21
M  V30 23 1 2 22
M  V30 24 1 2 23
M  V30 25 1 4 24
M  V30 26 1 4 25
M  V30 27 1 5 26
M  V30 28 1 5 27
M  V30 29 1 5 28
M  V30 30 1 10 29
M  V30 31 1 11 30
M  V30 32 1 12 31
M  V30 33 1 13 32
M  V30 34 1 14 33
M  V30 35 1 15 34
M  V30 36 1 15 35
M  V30 37 1 16 36
M  V30 38 1 17 37
M  V30 39 1 17 38
M  V30 40 1 18 39
M  V30 41 1 18 40
M  V30 END BOND
M  V30 END CTAB
M  END
>  <Dataset>  (620) 
OralDrugs

>  <Ligand_Instance>  (620) 
nan

>  <PDB_ID>  (620) 
nan

>  <Standardized_SMILES>  (620) 
CCN(CC)C(=O)C1(c2ccccc2)CC1CN

>  <Name>  (620) 
Milnacipran

>  <Pocket>  (620) 
nan

>  <ATP_Site>  (620) 
nan

>  <Peripheral>  (620) 
nan

>  <Num_H_Atoms_ProtBoundConf>  (620) 
nan

>  <Num_Resolved_Atoms>  (620) 
nan

>  <Num_Not_Resolved_Atoms>  (620) 
nan

$$$$
CHEMBL125
     RDKit          3D

  0  0  0  0  0  0  0  0  0  0999 V3000
M  V30 BEGIN CTAB
M  V30 COUNTS 73 72 0 0 0
M  V30 BEGIN ATOM
M  V30 1 C 2.772735 -1.401115 3.862550 0
M  V30 2 C 3.463772 -2.626275 3.333543 0
M  V30 3 C 4.780626 -2.277396 2.640339 0
M  V30 4 C 4.547237 -1.356286 1.486061 0
M  V30 5 C 5.836260 -1.000011 0.789045 0
M  V30 6 C 5.605514 -0.070880 -0.376490 0
M  V30 7 C 4.698665 -0.665089 -1.429978 0
M  V30 8 C 4.523866 0.330860 -2.556612 0
M  V30 9 C 3.628529 -0.210570 -3.634996 0
M  V30 10 C 2.253379 -0.548768 -3.166913 0
M  V30 11 C 1.510619 0.641727 -2.597779 0
M  V30 12 C 0.161995 0.153437 -2.175841 0
M  V30 13 C -0.721959 1.241217 -1.579086 0
M  V30 14 C -0.125114 1.858269 -0.366233 0
M  V30 15 C -0.924414 2.947422 0.268213 0
M  V30 16 C -2.276120 2.535681 0.733597 0
M  V30 17 O -3.120965 2.072663 -0.263487 0
M  V30 18 P -4.580422 1.652016 0.508716 0
M  V30 19 O -5.702957 1.639888 -0.483682 0
M  V30 20 O -4.893527 2.860056 1.650281 0 CHG=-1 VAL=1
M  V30 21 O -4.335558 0.183662 1.258759 0
M  V30 22 C -5.197449 -0.820889 0.862444 0
M  V30 23 C -4.921696 -2.130755 1.564134 0
M  V30 24 N -5.812073 -3.181019 1.158854 0 CHG=1 VAL=4
M  V30 25 C -6.826591 -3.514267 2.131207 0
M  V30 26 C -6.513638 -2.865523 -0.082199 0
M  V30 27 C -5.067278 -4.420078 0.901086 0
M  V30 28 H 3.493672 -0.744032 4.402498 0
M  V30 29 H 2.194864 -0.870134 3.078627 0
M  V30 30 H 2.034365 -1.740496 4.626748 0
M  V30 31 H 2.813733 -3.123479 2.600621 0
M  V30 32 H 3.641033 -3.312718 4.186119 0
M  V30 33 H 5.531906 -1.900842 3.355504 0
M  V30 34 H 5.159765 -3.254614 2.262162 0
M  V30 35 H 4.052393 -0.414853 1.820294 0
M  V30 36 H 3.910095 -1.852267 0.736510 0
M  V30 37 H 6.484767 -0.445960 1.498430 0
M  V30 38 H 6.332274 -1.925277 0.450910 0
M  V30 39 H 5.171124 0.867509 -0.022668 0
M  V30 40 H 6.568420 0.158973 -0.845912 0
M  V30 41 H 5.106208 -1.588750 -1.855061 0
M  V30 42 H 3.679954 -0.871163 -1.041439 0
M  V30 43 H 5.510473 0.572611 -3.023411 0
M  V30 44 H 4.085000 1.258624 -2.142612 0
M  V30 45 H 4.094738 -1.181482 -3.963518 0
M  V30 46 H 3.610275 0.462055 -4.495722 0
M  V30 47 H 1.674153 -0.877920 -4.060967 0
M  V30 48 H 2.259245 -1.352400 -2.423184 0
M  V30 49 H 1.363630 1.381470 -3.432860 0
M  V30 50 H 2.074026 1.162693 -1.821782 0
M  V30 51 H 0.303234 -0.609683 -1.373445 0
M  V30 52 H -0.393106 -0.260761 -3.018826 0
M  V30 53 H -1.660147 0.684563 -1.296934 0
M  V30 54 H -1.001604 2.001910 -2.314157 0
M  V30 55 H 0.032808 1.057092 0.409147 0
M  V30 56 H 0.879572 2.281359 -0.634107 0
M  V30 57 H -0.979235 3.805858 -0.445113 0
M  V30 58 H -0.359267 3.282864 1.169491 0
M  V30 59 H -2.737920 3.410539 1.254064 0
M  V30 60 H -2.167365 1.725180 1.497643 0
M  V30 61 H -6.217170 -0.490741 1.202979 0
M  V30 62 H -5.219284 -0.896149 -0.223153 0
M  V30 63 H -3.877376 -2.478342 1.379331 0
M  V30 64 H -4.978798 -1.955497 2.657533 0
M  V30 65 H -6.417087 -3.607922 3.139554 0
M  V30 66 H -7.194474 -4.542079 1.840539 0
M  V30 67 H -7.705237 -2.852269 2.039086 0
M  V30 68 H -7.195818 -3.732239 -0.269768 0
M  V30 69 H -7.072502 -1.930219 0.040247 0
M  V30 70 H -5.759705 -2.751578 -0.882079 0
M  V30 71 H -5.717389 -5.284669 1.092152 0
M  V30 72 H -4.771920 -4.417016 -0.177522 0
M  V30 73 H -4.159026 -4.381353 1.551647 0
M  V30 END ATOM
M  V30 BEGIN BOND
M  V30 1 1 1 2
M  V30 2 1 2 3
M  V30 3 1 3 4
M  V30 4 1 4 5
M  V30 5 1 5 6
M  V30 6 1 6 7
M  V30 7 1 7 8
M  V30 8 1 8 9
M  V30 9 1 9 10
M  V30 10 1 10 11
M  V30 11 1 11 12
M  V30 12 1 12 13
M  V30 13 1 13 14
M  V30 14 1 14 15
M  V30 15 1 15 16
M  V30 16 1 16 17
M  V30 17 1 17 18
M  V30 18 2 18 19
M  V30 19 1 18 20
M  V30 20 1 18 21
M  V30 21 1 21 22
M  V30 22 1 22 23
M  V30 23 1 23 24
M  V30 24 1 24 25
M  V30 25 1 24 26
M  V30 26 1 24 27
M  V30 27 1 1 28
M  V30 28 1 1 29
M  V30 29 1 1 30
M  V30 30 1 2 31
M  V30 31 1 2 32
M  V30 32 1 3 33
M  V30 33 1 3 34
M  V30 34 1 4 35
M  V30 35 1 4 36
M  V30 36 1 5 37
M  V30 37 1 5 38
M  V30 38 1 6 39
M  V30 39 1 6 40
M  V30 40 1 7 41
M  V30 41 1 7 42
M  V30 42 1 8 43
M  V30 43 1 8 44
M  V30 44 1 9 45
M  V30 45 1 9 46
M  V30 46 1 10 47
M  V30 47 1 10 48
M  V30 48 1 11 49
M  V30 49 1 11 50
M  V30 50 1 12 51
M  V30 51 1 12 52
M  V30 52 1 13 53
M  V30 53 1 13 54
M  V30 54 1 14 55
M  V30 55 1 14 56
M  V30 56 1 15 57
M  V30 57 1 15 58
M  V30 58 1 16 59
M  V30 59 1 16 60
M  V30 60 1 22 61
M  V30 61 1 22 62
M  V30 62 1 23 63
M  V30 63 1 23 64
M  V30 64 1 25 65
M  V30 65 1 25 66
M  V30 66 1 25 67
M  V30 67 1 26 68
M  V30 68 1 26 69
M  V30 69 1 26 70
M  V30 70 1 27 71
M  V30 71 1 27 72
M  V30 72 1 27 73
M  V30 END BOND
M  V30 END CTAB
M  END
>  <Dataset>  (621) 
OralDrugs

>  <Ligand_Instance>  (621) 
nan

>  <PDB_ID>  (621) 
nan

>  <Standardized_SMILES>  (621) 
CCCCCCCCCCCCCCCCOP(=O)([O-])OCC[N+](C)(C)C

>  <Name>  (621) 
Miltefosine

>  <Pocket>  (621) 
nan

>  <ATP_Site>  (621) 
nan

>  <Peripheral>  (621) 
nan

>  <Num_H_Atoms_ProtBoundConf>  (621) 
nan

>  <Num_Resolved_Atoms>  (621) 
nan

>  <Num_Not_Resolved_Atoms>  (621) 
nan

$$$$
CHEMBL1434
     RDKit          3D

  0  0  0  0  0  0  0  0  0  0999 V3000
M  V30 BEGIN CTAB
M  V30 COUNTS 60 63 0 0 0
M  V30 BEGIN ATOM
M  V30 1 C 1.640697 2.581656 4.330758 0
M  V30 2 N 2.646342 1.807154 3.625622 0
M  V30 3 C 3.655269 2.671705 3.054871 0
M  V30 4 C 2.773344 0.382672 3.418654 0
M  V30 5 C 3.923675 -0.098602 4.003183 0
M  V30 6 C 4.257648 -1.456505 3.943755 0
M  V30 7 C 3.344767 -2.256304 3.257008 0
M  V30 8 O 3.603507 -3.614970 3.152395 0
M  V30 9 C 2.200815 -1.765540 2.676604 0
M  V30 10 C 1.883810 -0.425887 2.743428 0
M  V30 11 C 0.711943 0.296944 2.189172 0
M  V30 12 C -0.282966 -0.577158 1.510108 0 CFG=1
M  V30 13 C -0.567702 -0.149325 0.065126 0
M  V30 14 C -1.865074 -0.789631 -0.392894 0 CFG=1
M  V30 15 C -2.101413 -0.501031 -1.829061 0 CFG=2
M  V30 16 N -3.517855 -0.472884 -2.178789 0
M  V30 17 C -4.249329 0.546691 -1.471369 0
M  V30 18 C -3.609199 -0.371205 -3.610601 0
M  V30 19 C -1.425228 -1.366364 -2.805713 0
M  V30 20 O -0.769114 -0.900710 -3.938362 0
M  V30 21 C -1.540636 -2.627181 -2.439998 0
M  V30 22 C -0.938189 -3.649887 -3.277596 0
M  V30 23 N -0.262349 -3.256106 -4.454412 0
M  V30 24 O -0.712590 -4.859880 -3.464473 0
M  V30 25 C -2.235160 -3.047043 -1.237069 0
M  V30 26 O -2.936639 -4.083739 -1.435592 0
M  V30 27 C -2.019642 -2.220235 0.004916 0 CFG=2
M  V30 28 O -3.129098 -2.452841 0.810813 0
M  V30 29 C -0.759684 -2.662944 0.687203 0
M  V30 30 O -0.501845 -4.021253 0.509904 0
M  V30 31 C 0.126354 -2.009156 1.409154 0
M  V30 32 C 1.292071 -2.661832 1.971203 0
M  V30 33 O 1.489147 -3.892587 1.853605 0
M  V30 34 H 0.978728 3.109028 3.630541 0
M  V30 35 H 2.165323 3.272236 5.033870 0
M  V30 36 H 1.004106 1.956682 4.992864 0
M  V30 37 H 3.103927 3.411738 2.405786 0
M  V30 38 H 4.394190 2.099507 2.487165 0
M  V30 39 H 4.104549 3.284769 3.860396 0
M  V30 40 H 4.661362 0.486281 4.548289 0
M  V30 41 H 5.132929 -1.874325 4.380281 0
M  V30 42 H 3.655763 -4.210311 3.983824 0
M  V30 43 H 1.120107 1.036173 1.443227 0
M  V30 44 H 0.227854 0.935522 2.961409 0
M  V30 45 H -1.242596 -0.528937 2.092706 0
M  V30 46 H -0.590884 0.938172 -0.030181 0
M  V30 47 H 0.267629 -0.535964 -0.550202 0
M  V30 48 H -2.702986 -0.234722 0.157082 0
M  V30 49 H -1.724102 0.549314 -2.041362 0
M  V30 50 H -3.590836 1.300598 -1.007656 0
M  V30 51 H -4.960242 0.072150 -0.775939 0
M  V30 52 H -4.885419 1.068192 -2.226790 0
M  V30 53 H -3.292253 -1.346791 -4.059074 0
M  V30 54 H -2.827459 0.352560 -3.951551 0
M  V30 55 H -4.589572 -0.048234 -3.993579 0
M  V30 56 H 0.170232 -0.551393 -3.968351 0
M  V30 57 H -0.164001 -2.659136 -5.324928 0
M  V30 58 H 0.301362 -3.039346 -5.292047 0
M  V30 59 H -3.638408 -1.621981 1.017381 0
M  V30 60 H -1.248308 -4.662770 0.810156 0
M  V30 END ATOM
M  V30 BEGIN BOND
M  V30 1 1 1 2
M  V30 2 1 2 3
M  V30 3 1 2 4
M  V30 4 2 4 5
M  V30 5 1 5 6
M  V30 6 2 6 7
M  V30 7 1 7 8
M  V30 8 1 7 9
M  V30 9 2 9 10
M  V30 10 1 10 11
M  V30 11 1 11 12
M  V30 12 1 12 13
M  V30 13 1 13 14
M  V30 14 1 14 15
M  V30 15 1 15 16
M  V30 16 1 16 17
M  V30 17 1 16 18
M  V30 18 1 15 19
M  V30 19 1 19 20
M  V30 20 2 19 21
M  V30 21 1 21 22
M  V30 22 1 22 23
M  V30 23 2 22 24
M  V30 24 1 21 25
M  V30 25 2 25 26
M  V30 26 1 25 27
M  V30 27 1 27 28 CFG=1
M  V30 28 1 27 29
M  V30 29 1 29 30
M  V30 30 2 29 31
M  V30 31 1 31 32
M  V30 32 2 32 33
M  V30 33 1 10 4
M  V30 34 1 31 12
M  V30 35 1 32 9
M  V30 36 1 27 14
M  V30 37 1 1 34
M  V30 38 1 1 35
M  V30 39 1 1 36
M  V30 40 1 3 37
M  V30 41 1 3 38
M  V30 42 1 3 39
M  V30 43 1 5 40
M  V30 44 1 6 41
M  V30 45 1 8 42
M  V30 46 1 11 43
M  V30 47 1 11 44
M  V30 48 1 12 45 CFG=1
M  V30 49 1 13 46
M  V30 50 1 13 47
M  V30 51 1 14 48 CFG=1
M  V30 52 1 15 49 CFG=3
M  V30 53 1 17 50
M  V30 54 1 17 51
M  V30 55 1 17 52
M  V30 56 1 18 53
M  V30 57 1 18 54
M  V30 58 1 18 55
M  V30 59 1 20 56
M  V30 60 1 23 57
M  V30 61 1 23 58
M  V30 62 1 28 59
M  V30 63 1 30 60
M  V30 END BOND
M  V30 END CTAB
M  END
>  <Dataset>  (622) 
OralDrugs

>  <Ligand_Instance>  (622) 
nan

>  <PDB_ID>  (622) 
nan

>  <Standardized_SMILES>  (622) 
CN(C)c1ccc(O)c2c1C[C@H]1C[C@H]3[C@H](N(C)C)C(O)=C(C(N)=O)C(=O)[C@@]3(O)C(O)=C1C2=O

>  <Name>  (622) 
Minocycline

>  <Pocket>  (622) 
nan

>  <ATP_Site>  (622) 
nan

>  <Peripheral>  (622) 
nan

>  <Num_H_Atoms_ProtBoundConf>  (622) 
nan

>  <Num_Resolved_Atoms>  (622) 
nan

>  <Num_Not_Resolved_Atoms>  (622) 
nan

$$$$
CHEMBL319144
     RDKit          3D

  0  0  0  0  0  0  0  0  0  0999 V3000
M  V30 BEGIN CTAB
M  V30 COUNTS 32 33 0 0 0
M  V30 BEGIN ATOM
M  V30 1 O 1.243025 -1.336002 2.259899 0
M  V30 2 P -0.223250 -1.724519 2.167922 0
M  V30 3 O -1.224023 -0.613876 2.909168 0
M  V30 4 O -0.348091 -3.171971 3.078876 0
M  V30 5 C -0.649643 -2.102898 0.488465 0
M  V30 6 O 0.232008 -3.096008 0.025198 0
M  V30 7 C -0.651647 -0.985639 -0.485603 0
M  V30 8 C 0.642761 -0.285832 -0.658214 0
M  V30 9 C 1.576286 -0.726586 -1.600487 0
M  V30 10 N 2.687650 0.056694 -1.577808 0
M  V30 11 C 2.458178 0.974165 -0.638494 0
M  V30 12 C 3.247658 2.017540 -0.200295 0
M  V30 13 C 2.765277 2.850169 0.811244 0
M  V30 14 C 1.518833 2.595435 1.331122 0
M  V30 15 C 0.741447 1.548369 0.882672 0
M  V30 16 N 1.245526 0.772183 -0.092324 0
M  V30 17 P -2.345638 -2.804878 0.509159 0
M  V30 18 O -2.402749 -4.046416 -0.341193 0
M  V30 19 O -2.850386 -3.140219 2.087777 0
M  V30 20 O -3.431779 -1.673641 -0.117734 0
M  V30 21 H -0.874610 -0.499705 3.838642 0
M  V30 22 H -1.126409 -3.171108 3.675604 0
M  V30 23 H 1.051619 -3.135135 0.586367 0
M  V30 24 H -1.476667 -0.249179 -0.248214 0
M  V30 25 H -0.993412 -1.422595 -1.464214 0
M  V30 26 H 1.479987 -1.578022 -2.288062 0
M  V30 27 H 4.225173 2.174719 -0.645113 0
M  V30 28 H 3.412669 3.648107 1.120446 0
M  V30 29 H 1.155541 3.243076 2.110660 0
M  V30 30 H -0.236031 1.373737 1.309538 0
M  V30 31 H -3.515252 -3.884653 2.065605 0
M  V30 32 H -3.636169 -0.949610 0.506764 0
M  V30 END ATOM
M  V30 BEGIN BOND
M  V30 1 2 1 2
M  V30 2 1 2 3
M  V30 3 1 2 4
M  V30 4 1 2 5
M  V30 5 1 5 6
M  V30 6 1 5 7
M  V30 7 1 7 8
M  V30 8 2 8 9
M  V30 9 1 9 10
M  V30 10 2 10 11
M  V30 11 1 11 12
M  V30 12 2 12 13
M  V30 13 1 13 14
M  V30 14 2 14 15
M  V30 15 1 15 16
M  V30 16 1 5 17
M  V30 17 2 17 18
M  V30 18 1 17 19
M  V30 19 1 17 20
M  V30 20 1 16 8
M  V30 21 1 16 11
M  V30 22 1 3 21
M  V30 23 1 4 22
M  V30 24 1 6 23
M  V30 25 1 7 24
M  V30 26 1 7 25
M  V30 27 1 9 26
M  V30 28 1 12 27
M  V30 29 1 13 28
M  V30 30 1 14 29
M  V30 31 1 15 30
M  V30 32 1 19 31
M  V30 33 1 20 32
M  V30 END BOND
M  V30 END CTAB
M  END
>  <Dataset>  (623) 
OralDrugs

>  <Ligand_Instance>  (623) 
nan

>  <PDB_ID>  (623) 
nan

>  <Standardized_SMILES>  (623) 
O=P(O)(O)C(O)(Cc1cnc2ccccn12)P(=O)(O)O

>  <Name>  (623) 
Minodronic Acid

>  <Pocket>  (623) 
nan

>  <ATP_Site>  (623) 
nan

>  <Peripheral>  (623) 
nan

>  <Num_H_Atoms_ProtBoundConf>  (623) 
nan

>  <Num_Resolved_Atoms>  (623) 
nan

>  <Num_Not_Resolved_Atoms>  (623) 
nan

$$$$
CHEMBL2095212
     RDKit          3D

  0  0  0  0  0  0  0  0  0  0999 V3000
M  V30 BEGIN CTAB
M  V30 COUNTS 52 54 0 0 0
M  V30 BEGIN ATOM
M  V30 1 N 1.379149 -7.331174 0.095273 0
M  V30 2 C 2.327089 -6.385593 -0.483336 0
M  V30 3 N 2.174342 -5.545142 -1.258795 0
M  V30 4 C 3.070208 -4.709136 -1.755163 0
M  V30 5 C 2.779657 -3.653776 -2.756341 0
M  V30 6 C 2.390919 -2.382151 -2.119477 0
M  V30 7 O 2.506818 -2.856051 -0.964121 0
M  V30 8 N 2.070953 -1.244890 -2.881555 0
M  V30 9 C 1.717618 -0.105294 -2.074643 0
M  V30 10 C 2.612756 0.847674 -1.605329 0
M  V30 11 C 2.102647 1.889325 -0.835515 0
M  V30 12 C 0.755817 1.984219 -0.541024 0
M  V30 13 C 0.271981 3.110521 0.279660 0
M  V30 14 C 0.274998 2.811954 1.758204 0
M  V30 15 N -0.563128 1.695215 2.062109 0
M  V30 16 C -0.610561 1.347959 3.469220 0
M  V30 17 C -1.514520 0.173790 3.677035 0 CFG=2
M  V30 18 O -1.001411 -0.886567 2.933996 0
M  V30 19 C -2.926073 0.375142 3.370159 0
M  V30 20 C -3.604136 1.554787 3.137189 0
M  V30 21 C -4.953838 1.591652 2.854421 0
M  V30 22 C -5.681382 0.400490 2.796857 0
M  V30 23 C -5.015222 -0.788390 3.028116 0
M  V30 24 C -3.664386 -0.809654 3.309878 0
M  V30 25 C -0.130576 1.022259 -1.017720 0
M  V30 26 C 0.370776 -0.024181 -1.789158 0
M  V30 27 C 4.437089 -4.919540 -1.212354 0
M  V30 28 S 4.173713 -6.334370 -0.043585 0
M  V30 29 H 0.773052 -6.798612 0.756844 0
M  V30 30 H 1.304445 -8.347247 -0.100598 0
M  V30 31 H 2.024821 -3.985007 -3.477184 0
M  V30 32 H 3.691258 -3.418192 -3.369042 0
M  V30 33 H 2.124610 -1.354997 -3.901522 0
M  V30 34 H 3.642541 0.711508 -1.872155 0
M  V30 35 H 2.828420 2.618194 -0.483658 0
M  V30 36 H 0.901246 3.979500 0.046149 0
M  V30 37 H -0.777312 3.369234 -0.030376 0
M  V30 38 H -0.015410 3.739194 2.282671 0
M  V30 39 H 1.312024 2.550578 2.058318 0
M  V30 40 H -1.451099 1.629304 1.561577 0
M  V30 41 H -0.805773 2.201032 4.116918 0
M  V30 42 H 0.414290 0.997328 3.715891 0
M  V30 43 H -1.467525 -0.169967 4.742104 0
M  V30 44 H -0.562714 -0.526474 2.099659 0
M  V30 45 H -3.009805 2.430463 3.192799 0
M  V30 46 H -5.423491 2.548489 2.682103 0
M  V30 47 H -6.743823 0.494989 2.569165 0
M  V30 48 H -5.623415 -1.690911 2.972698 0
M  V30 49 H -3.248212 -1.798426 3.473619 0
M  V30 50 H -1.186551 1.101946 -0.783374 0
M  V30 51 H -0.358522 -0.744406 -2.134707 0
M  V30 52 H 5.269990 -4.263143 -1.568209 0
M  V30 END ATOM
M  V30 BEGIN BOND
M  V30 1 1 1 2
M  V30 2 2 2 3
M  V30 3 1 3 4
M  V30 4 1 4 5
M  V30 5 1 5 6
M  V30 6 2 6 7
M  V30 7 1 6 8
M  V30 8 1 8 9
M  V30 9 2 9 10
M  V30 10 1 10 11
M  V30 11 2 11 12
M  V30 12 1 12 13
M  V30 13 1 13 14
M  V30 14 1 14 15
M  V30 15 1 15 16
M  V30 16 1 16 17
M  V30 17 1 17 18
M  V30 18 1 17 19
M  V30 19 2 19 20
M  V30 20 1 20 21
M  V30 21 2 21 22
M  V30 22 1 22 23
M  V30 23 2 23 24
M  V30 24 1 12 25
M  V30 25 2 25 26
M  V30 26 2 4 27
M  V30 27 1 27 28
M  V30 28 1 28 2
M  V30 29 1 26 9
M  V30 30 1 24 19
M  V30 31 1 1 29
M  V30 32 1 1 30
M  V30 33 1 5 31
M  V30 34 1 5 32
M  V30 35 1 8 33
M  V30 36 1 10 34
M  V30 37 1 11 35
M  V30 38 1 13 36
M  V30 39 1 13 37
M  V30 40 1 14 38
M  V30 41 1 14 39
M  V30 42 1 15 40
M  V30 43 1 16 41
M  V30 44 1 16 42
M  V30 45 1 17 43 CFG=1
M  V30 46 1 18 44
M  V30 47 1 20 45
M  V30 48 1 21 46
M  V30 49 1 22 47
M  V30 50 1 23 48
M  V30 51 1 24 49
M  V30 52 1 25 50
M  V30 53 1 26 51
M  V30 54 1 27 52
M  V30 END BOND
M  V30 END CTAB
M  END
>  <Dataset>  (624) 
OralDrugs

>  <Ligand_Instance>  (624) 
nan

>  <PDB_ID>  (624) 
nan

>  <Standardized_SMILES>  (624) 
Nc1nc(CC(=O)Nc2ccc(CCNC[C@H](O)c3ccccc3)cc2)cs1

>  <Name>  (624) 
Mirabegron

>  <Pocket>  (624) 
nan

>  <ATP_Site>  (624) 
nan

>  <Peripheral>  (624) 
nan

>  <Num_H_Atoms_ProtBoundConf>  (624) 
nan

>  <Num_Resolved_Atoms>  (624) 
nan

>  <Num_Not_Resolved_Atoms>  (624) 
nan

$$$$
CHEMBL654
     RDKit          3D

  0  0  0  0  0  0  0  0  0  0999 V3000
M  V30 BEGIN CTAB
M  V30 COUNTS 39 42 0 0 0
M  V30 BEGIN ATOM
M  V30 1 C -1.961131 -2.295747 3.635418 0
M  V30 2 N -1.654719 -2.461352 2.205579 0
M  V30 3 C -0.463220 -3.229956 2.135898 0
M  V30 4 C 0.465025 -2.946107 1.014484 0
M  V30 5 N 0.526047 -1.522463 0.706484 0
M  V30 6 C 1.334055 -1.239886 -0.409419 0
M  V30 7 N 2.290302 -2.191021 -0.523537 0
M  V30 8 C 3.178067 -2.112593 -1.531813 0
M  V30 9 C 3.081984 -1.056146 -2.422141 0
M  V30 10 C 2.099830 -0.081565 -2.302756 0
M  V30 11 C 1.191880 -0.173443 -1.260608 0
M  V30 12 C 0.208106 0.945861 -1.275321 0
M  V30 13 C 0.086344 1.495737 0.077096 0
M  V30 14 C 0.185196 2.870666 0.034533 0
M  V30 15 C 0.092074 3.574037 1.232449 0
M  V30 16 C -0.092511 2.873128 2.393263 0
M  V30 17 C -0.189236 1.499503 2.418567 0
M  V30 18 C -0.098985 0.772466 1.231282 0
M  V30 19 C -0.235940 -0.639903 1.575544 0
M  V30 20 C -1.633975 -1.175064 1.585649 0
M  V30 21 H -1.338154 -2.953816 4.275667 0
M  V30 22 H -3.010474 -2.522329 3.839916 0
M  V30 23 H -1.677517 -1.256713 3.927576 0
M  V30 24 H 0.125269 -3.199167 3.089897 0
M  V30 25 H -0.783004 -4.307440 2.028919 0
M  V30 26 H 0.089069 -3.426041 0.076150 0
M  V30 27 H 1.477455 -3.305356 1.274656 0
M  V30 28 H 3.994886 -2.811123 -1.736217 0
M  V30 29 H 3.750092 -0.906475 -3.266024 0
M  V30 30 H 2.031624 0.750964 -3.012306 0
M  V30 31 H 0.515307 1.700547 -2.012748 0
M  V30 32 H -0.812465 0.577165 -1.582652 0
M  V30 33 H 0.332484 3.406373 -0.905148 0
M  V30 34 H 0.173175 4.654102 1.169265 0
M  V30 35 H -0.152674 3.519230 3.278557 0
M  V30 36 H -0.335067 1.088434 3.418361 0
M  V30 37 H 0.187512 -0.836436 2.602471 0
M  V30 38 H -2.295534 -0.502360 2.178520 0
M  V30 39 H -2.094213 -1.216512 0.580604 0
M  V30 END ATOM
M  V30 BEGIN BOND
M  V30 1 1 1 2
M  V30 2 1 2 3
M  V30 3 1 3 4
M  V30 4 1 4 5
M  V30 5 1 5 6
M  V30 6 2 6 7
M  V30 7 1 7 8
M  V30 8 2 8 9
M  V30 9 1 9 10
M  V30 10 2 10 11
M  V30 11 1 11 12
M  V30 12 1 12 13
M  V30 13 2 13 14
M  V30 14 1 14 15
M  V30 15 2 15 16
M  V30 16 1 16 17
M  V30 17 2 17 18
M  V30 18 1 18 19
M  V30 19 1 19 20
M  V30 20 1 20 2
M  V30 21 1 19 5
M  V30 22 1 11 6
M  V30 23 1 18 13
M  V30 24 1 1 21
M  V30 25 1 1 22
M  V30 26 1 1 23
M  V30 27 1 3 24
M  V30 28 1 3 25
M  V30 29 1 4 26
M  V30 30 1 4 27
M  V30 31 1 8 28
M  V30 32 1 9 29
M  V30 33 1 10 30
M  V30 34 1 12 31
M  V30 35 1 12 32
M  V30 36 1 14 33
M  V30 37 1 15 34
M  V30 38 1 16 35
M  V30 39 1 17 36
M  V30 40 1 19 37
M  V30 41 1 20 38
M  V30 42 1 20 39
M  V30 END BOND
M  V30 END CTAB
M  END
>  <Dataset>  (625) 
OralDrugs

>  <Ligand_Instance>  (625) 
nan

>  <PDB_ID>  (625) 
nan

>  <Standardized_SMILES>  (625) 
CN1CCN2c3ncccc3Cc3ccccc3C2C1

>  <Name>  (625) 
Mirtazapine

>  <Pocket>  (625) 
nan

>  <ATP_Site>  (625) 
nan

>  <Peripheral>  (625) 
nan

>  <Num_H_Atoms_ProtBoundConf>  (625) 
nan

>  <Num_Resolved_Atoms>  (625) 
nan

>  <Num_Not_Resolved_Atoms>  (625) 
nan

$$$$
CHEMBL4299940
     RDKit          3D

  0  0  0  0  0  0  0  0  0  0999 V3000
M  V30 BEGIN CTAB
M  V30 COUNTS 58 62 0 0 0
M  V30 BEGIN ATOM
M  V30 1 O -1.803321 -3.469402 2.564905 0
M  V30 2 C -1.452951 -2.693461 1.640411 0
M  V30 3 C -0.173474 -2.004334 1.630785 0
M  V30 4 C -0.189857 -0.610689 1.624878 0
M  V30 5 C 0.993274 0.136077 1.622386 0
M  V30 6 C 2.219515 -0.530813 1.625137 0
M  V30 7 N 3.338857 0.323600 1.627547 0
M  V30 8 S 3.833413 1.733336 0.820293 0
M  V30 9 O 5.194302 2.157040 1.316061 0
M  V30 10 O 3.936314 1.428094 -0.639928 0
M  V30 11 C 2.774177 3.093655 1.113753 0
M  V30 12 C 2.059294 3.797491 0.159128 0
M  V30 13 C 1.245788 4.862797 0.471516 0
M  V30 14 C 1.121069 5.265300 1.783535 0
M  V30 15 C 1.834649 4.569898 2.767656 0
M  V30 16 C 1.704451 4.978790 4.076479 0
M  V30 17 C 2.396476 4.315619 5.093961 0
M  V30 18 C 3.192717 3.258519 4.707546 0
M  V30 19 N 3.330400 2.843092 3.418330 0
M  V30 20 C 2.654541 3.494800 2.449285 0
M  V30 21 C 2.250283 -1.923063 1.630030 0
M  V30 22 C 1.060345 -2.620656 1.633258 0
M  V30 23 N -2.447106 -2.585133 0.637873 0
M  V30 24 C -3.701052 -3.338122 0.780594 0
M  V30 25 C -3.896479 -4.297175 -0.407032 0
M  V30 26 N -2.716976 -3.999534 -1.270432 0
M  V30 27 C -2.539990 -4.974010 -2.277954 0
M  V30 28 C -1.272986 -4.985458 -3.047512 0
M  V30 29 C -0.701896 -3.955603 -3.892159 0
M  V30 30 C -1.388810 -5.124919 -4.568574 0
M  V30 31 C -2.954873 -2.643938 -1.675897 0
M  V30 32 C -2.340443 -1.770807 -0.583391 0
M  V30 33 H -1.163486 -0.099151 1.617428 0
M  V30 34 H 0.842496 1.205286 1.618534 0
M  V30 35 H 3.983864 -0.093244 2.346784 0
M  V30 36 H 2.198985 3.433204 -0.867063 0
M  V30 37 H 0.708925 5.370976 -0.339012 0
M  V30 38 H 0.481742 6.105222 2.040998 0
M  V30 39 H 1.086005 5.801508 4.395542 0
M  V30 40 H 2.359222 4.563207 6.161029 0
M  V30 41 H 3.746445 2.720461 5.474005 0
M  V30 42 H 3.221579 -2.393629 1.630703 0
M  V30 43 H 1.089965 -3.715393 1.637805 0
M  V30 44 H -3.654130 -3.979393 1.682600 0
M  V30 45 H -4.571025 -2.662249 0.907465 0
M  V30 46 H -3.936545 -5.340181 -0.106675 0
M  V30 47 H -4.761360 -3.919280 -0.983522 0
M  V30 48 H -2.722744 -5.986592 -1.802078 0
M  V30 49 H -3.422251 -4.884906 -2.992872 0
M  V30 50 H -0.501829 -5.708981 -2.573640 0
M  V30 51 H 0.427709 -4.022241 -4.051423 0
M  V30 52 H -1.040365 -2.949193 -4.100368 0
M  V30 53 H -0.784004 -5.939390 -5.023952 0
M  V30 54 H -2.358578 -5.005504 -5.050344 0
M  V30 55 H -4.072638 -2.422911 -1.608581 0
M  V30 56 H -2.688127 -2.360029 -2.682861 0
M  V30 57 H -1.307278 -1.585807 -0.865571 0
M  V30 58 H -2.977620 -0.900633 -0.410135 0
M  V30 END ATOM
M  V30 BEGIN BOND
M  V30 1 2 1 2
M  V30 2 1 2 3
M  V30 3 2 3 4
M  V30 4 1 4 5
M  V30 5 2 5 6
M  V30 6 1 6 7
M  V30 7 1 7 8
M  V30 8 2 8 9
M  V30 9 2 8 10
M  V30 10 1 8 11
M  V30 11 2 11 12
M  V30 12 1 12 13
M  V30 13 2 13 14
M  V30 14 1 14 15
M  V30 15 2 15 16
M  V30 16 1 16 17
M  V30 17 2 17 18
M  V30 18 1 18 19
M  V30 19 2 19 20
M  V30 20 1 6 21
M  V30 21 2 21 22
M  V30 22 1 2 23
M  V30 23 1 23 24
M  V30 24 1 24 25
M  V30 25 1 25 26
M  V30 26 1 26 27
M  V30 27 1 27 28
M  V30 28 1 28 29
M  V30 29 1 29 30
M  V30 30 1 26 31
M  V30 31 1 31 32
M  V30 32 1 22 3
M  V30 33 1 32 23
M  V30 34 1 20 11
M  V30 35 1 30 28
M  V30 36 1 20 15
M  V30 37 1 4 33
M  V30 38 1 5 34
M  V30 39 1 7 35
M  V30 40 1 12 36
M  V30 41 1 13 37
M  V30 42 1 14 38
M  V30 43 1 16 39
M  V30 44 1 17 40
M  V30 45 1 18 41
M  V30 46 1 21 42
M  V30 47 1 22 43
M  V30 48 1 24 44
M  V30 49 1 24 45
M  V30 50 1 25 46
M  V30 51 1 25 47
M  V30 52 1 27 48
M  V30 53 1 27 49
M  V30 54 1 28 50
M  V30 55 1 29 51
M  V30 56 1 29 52
M  V30 57 1 30 53
M  V30 58 1 30 54
M  V30 59 1 31 55
M  V30 60 1 31 56
M  V30 61 1 32 57
M  V30 62 1 32 58
M  V30 END BOND
M  V30 END CTAB
M  END
>  <Dataset>  (626) 
OralDrugs

>  <Ligand_Instance>  (626) 
nan

>  <PDB_ID>  (626) 
nan

>  <Standardized_SMILES>  (626) 
O=C(c1ccc(NS(=O)(=O)c2cccc3cccnc23)cc1)N1CCN(CC2CC2)CC1

>  <Name>  (626) 
Mitapivat

>  <Pocket>  (626) 
nan

>  <ATP_Site>  (626) 
nan

>  <Peripheral>  (626) 
nan

>  <Num_H_Atoms_ProtBoundConf>  (626) 
nan

>  <Num_Resolved_Atoms>  (626) 
nan

>  <Num_Not_Resolved_Atoms>  (626) 
nan

$$$$
CHEMBL1670
     RDKit          3D

  0  0  0  0  0  0  0  0  0  0999 V3000
M  V30 BEGIN CTAB
M  V30 COUNTS 28 29 0 0 0
M  V30 BEGIN ATOM
M  V30 1 Cl -0.495183 -3.919063 5.060686 0
M  V30 2 C -0.308975 -2.639642 3.877967 0
M  V30 3 C -1.374274 -2.156023 3.123497 0
M  V30 4 C -1.126508 -1.140583 2.211052 0
M  V30 5 C 0.111822 -0.573302 1.999893 0
M  V30 6 C 0.215370 0.488672 1.012879 0
M  V30 7 C 0.308994 -0.015141 -0.390537 0
M  V30 8 C 1.203487 -1.010419 -0.767731 0
M  V30 9 C 1.302092 -1.493530 -2.061551 0
M  V30 10 C 0.440550 -0.920773 -2.993664 0
M  V30 11 C -0.469330 0.070047 -2.682962 0
M  V30 12 C -0.509119 0.496822 -1.381450 0
M  V30 13 Cl -1.643472 1.761418 -0.902149 0
M  V30 14 C 1.309749 1.494294 1.213757 0
M  V30 15 Cl 1.157322 2.349358 2.748940 0
M  V30 16 Cl 2.927382 0.910260 0.869228 0
M  V30 17 C 1.131913 -1.101453 2.785192 0
M  V30 18 C 0.951076 -2.109078 3.707646 0
M  V30 19 H -2.303850 -2.642127 3.339722 0
M  V30 20 H -2.047927 -0.867891 1.697948 0
M  V30 21 H -0.738294 1.076630 1.068697 0
M  V30 22 H 1.856005 -1.433870 -0.025105 0
M  V30 23 H 1.992910 -2.265823 -2.360890 0
M  V30 24 H 0.467255 -1.251755 -4.017019 0
M  V30 25 H -1.137215 0.521906 -3.386138 0
M  V30 26 H 1.107918 2.281013 0.421996 0
M  V30 27 H 2.108235 -0.687766 2.651585 0
M  V30 28 H 1.767671 -2.475170 4.281120 0
M  V30 END ATOM
M  V30 BEGIN BOND
M  V30 1 1 1 2
M  V30 2 2 2 3
M  V30 3 1 3 4
M  V30 4 2 4 5
M  V30 5 1 5 6
M  V30 6 1 6 7
M  V30 7 2 7 8
M  V30 8 1 8 9
M  V30 9 2 9 10
M  V30 10 1 10 11
M  V30 11 2 11 12
M  V30 12 1 12 13
M  V30 13 1 6 14
M  V30 14 1 14 15
M  V30 15 1 14 16
M  V30 16 1 5 17
M  V30 17 2 17 18
M  V30 18 1 18 2
M  V30 19 1 12 7
M  V30 20 1 3 19
M  V30 21 1 4 20
M  V30 22 1 6 21
M  V30 23 1 8 22
M  V30 24 1 9 23
M  V30 25 1 10 24
M  V30 26 1 11 25
M  V30 27 1 14 26
M  V30 28 1 17 27
M  V30 29 1 18 28
M  V30 END BOND
M  V30 END CTAB
M  END
>  <Dataset>  (627) 
OralDrugs

>  <Ligand_Instance>  (627) 
nan

>  <PDB_ID>  (627) 
nan

>  <Standardized_SMILES>  (627) 
Clc1ccc(C(c2ccccc2Cl)C(Cl)Cl)cc1

>  <Name>  (627) 
Mitotane

>  <Pocket>  (627) 
nan

>  <ATP_Site>  (627) 
nan

>  <Peripheral>  (627) 
nan

>  <Num_H_Atoms_ProtBoundConf>  (627) 
nan

>  <Num_Resolved_Atoms>  (627) 
nan

>  <Num_Not_Resolved_Atoms>  (627) 
nan

$$$$
CHEMBL94454
     RDKit          3D

  0  0  0  0  0  0  0  0  0  0999 V3000
M  V30 BEGIN CTAB
M  V30 COUNTS 57 61 0 0 0
M  V30 BEGIN ATOM
M  V30 1 C 1.517733 -1.046586 2.396004 0
M  V30 2 N 2.648743 -0.713453 1.541267 0
M  V30 3 C 3.962742 -1.118337 1.904259 0
M  V30 4 N 5.063118 -0.854870 1.178686 0
M  V30 5 C 6.303511 -1.237307 1.522194 0
M  V30 6 C 6.470635 -1.945133 2.690300 0
M  V30 7 C 5.354505 -2.227703 3.452433 0
M  V30 8 O 5.433867 -2.872419 4.534609 0
M  V30 9 N 4.147773 -1.810568 3.041219 0
M  V30 10 C 2.362521 0.035582 0.331113 0
M  V30 11 C 1.736329 1.349589 0.638563 0
M  V30 12 C 0.665542 1.841270 -0.238089 0
M  V30 13 N -0.126937 0.784693 -0.908547 0
M  V30 14 C -1.508843 0.828389 -0.710346 0
M  V30 15 N -2.007287 1.845100 0.061620 0
M  V30 16 C -3.366767 1.710371 0.114374 0
M  V30 17 C -4.266055 2.518359 0.776050 0
M  V30 18 C -5.596062 2.170918 0.667389 0
M  V30 19 C -5.958205 1.066370 -0.074450 0
M  V30 20 C -4.986466 0.318042 -0.701345 0
M  V30 21 C -3.637079 0.613214 -0.630525 0
M  V30 22 N -2.496244 0.059021 -1.144704 0
M  V30 23 C -2.467583 -1.090810 -1.951793 0
M  V30 24 C -2.333679 -2.387567 -1.244750 0
M  V30 25 C -3.411046 -3.000319 -0.608056 0
M  V30 26 C -3.367571 -4.207420 0.054474 0
M  V30 27 C -2.176165 -4.888708 0.109547 0
M  V30 28 F -2.082599 -6.077057 0.748039 0
M  V30 29 C -1.063005 -4.353067 -0.494192 0
M  V30 30 C -1.187402 -3.143608 -1.136151 0
M  V30 31 C 0.766087 -0.021590 -1.609181 0
M  V30 32 C 1.581380 -0.829022 -0.611050 0
M  V30 33 H 1.403860 -2.157127 2.458516 0
M  V30 34 H 1.774459 -0.672824 3.419983 0
M  V30 35 H 0.599743 -0.553967 2.077170 0
M  V30 36 H 7.176834 -1.020971 0.933807 0
M  V30 37 H 7.423517 -2.313691 3.081911 0
M  V30 38 H 3.311290 -2.031651 3.628257 0
M  V30 39 H 3.346429 0.223727 -0.148289 0
M  V30 40 H 1.368846 1.296799 1.700019 0
M  V30 41 H 2.524406 2.145698 0.686004 0
M  V30 42 H 1.078985 2.455311 -1.093074 0
M  V30 43 H 0.012831 2.563905 0.296113 0
M  V30 44 H -3.960737 3.385251 1.355831 0
M  V30 45 H -6.340273 2.779900 1.173247 0
M  V30 46 H -7.014589 0.802265 -0.152653 0
M  V30 47 H -5.343436 -0.520023 -1.266729 0
M  V30 48 H -1.846118 -1.027689 -2.865931 0
M  V30 49 H -3.497409 -1.205579 -2.432322 0
M  V30 50 H -4.392272 -2.554660 -0.589961 0
M  V30 51 H -4.207321 -4.659942 0.536735 0
M  V30 52 H -0.139650 -4.889090 -0.447065 0
M  V30 53 H -0.285709 -2.789766 -1.593607 0
M  V30 54 H 1.563346 0.582506 -2.153416 0
M  V30 55 H 0.439292 -0.704308 -2.381893 0
M  V30 56 H 2.207837 -1.519967 -1.209486 0
M  V30 57 H 0.882363 -1.443235 -0.021035 0
M  V30 END ATOM
M  V30 BEGIN BOND
M  V30 1 1 1 2
M  V30 2 1 2 3
M  V30 3 2 3 4
M  V30 4 1 4 5
M  V30 5 2 5 6
M  V30 6 1 6 7
M  V30 7 2 7 8
M  V30 8 1 7 9
M  V30 9 1 2 10
M  V30 10 1 10 11
M  V30 11 1 11 12
M  V30 12 1 12 13
M  V30 13 1 13 14
M  V30 14 2 14 15
M  V30 15 1 15 16
M  V30 16 2 16 17
M  V30 17 1 17 18
M  V30 18 2 18 19
M  V30 19 1 19 20
M  V30 20 2 20 21
M  V30 21 1 21 22
M  V30 22 1 22 23
M  V30 23 1 23 24
M  V30 24 2 24 25
M  V30 25 1 25 26
M  V30 26 2 26 27
M  V30 27 1 27 28
M  V30 28 1 27 29
M  V30 29 2 29 30
M  V30 30 1 13 31
M  V30 31 1 31 32
M  V30 32 1 9 3
M  V30 33 1 32 10
M  V30 34 1 22 14
M  V30 35 1 30 24
M  V30 36 1 21 16
M  V30 37 1 1 33
M  V30 38 1 1 34
M  V30 39 1 1 35
M  V30 40 1 5 36
M  V30 41 1 6 37
M  V30 42 1 9 38
M  V30 43 1 10 39
M  V30 44 1 11 40
M  V30 45 1 11 41
M  V30 46 1 12 42
M  V30 47 1 12 43
M  V30 48 1 17 44
M  V30 49 1 18 45
M  V30 50 1 19 46
M  V30 51 1 20 47
M  V30 52 1 23 48
M  V30 53 1 23 49
M  V30 54 1 25 50
M  V30 55 1 26 51
M  V30 56 1 29 52
M  V30 57 1 30 53
M  V30 58 1 31 54
M  V30 59 1 31 55
M  V30 60 1 32 56
M  V30 61 1 32 57
M  V30 END BOND
M  V30 END CTAB
M  END
>  <Dataset>  (628) 
OralDrugs

>  <Ligand_Instance>  (628) 
nan

>  <PDB_ID>  (628) 
nan

>  <Standardized_SMILES>  (628) 
CN(c1nccc(=O)[nH]1)C1CCN(c2nc3ccccc3n2Cc2ccc(F)cc2)CC1

>  <Name>  (628) 
Mizolastine

>  <Pocket>  (628) 
nan

>  <ATP_Site>  (628) 
nan

>  <Peripheral>  (628) 
nan

>  <Num_H_Atoms_ProtBoundConf>  (628) 
nan

>  <Num_Resolved_Atoms>  (628) 
nan

>  <Num_Not_Resolved_Atoms>  (628) 
nan

$$$$
CHEMBL4650319
     RDKit          3D

  0  0  0  0  0  0  0  0  0  0999 V3000
M  V30 BEGIN CTAB
M  V30 COUNTS 82 85 0 0 0
M  V30 BEGIN ATOM
M  V30 1 C 4.804864 -3.921968 3.223823 0
M  V30 2 C 4.234446 -4.309048 2.100432 0
M  V30 3 C 3.781659 -3.363303 1.095131 0
M  V30 4 O 3.238842 -3.811272 0.030243 0
M  V30 5 N 3.898237 -1.951484 1.204042 0
M  V30 6 C 3.367153 -1.297282 0.061877 0
M  V30 7 C 2.046516 -0.922743 -0.061474 0
M  V30 8 C 1.486376 -0.283403 -1.147752 0
M  V30 9 N 0.117624 0.068112 -1.226452 0
M  V30 10 C -0.898975 -0.086378 -0.249345 0
M  V30 11 N -0.744904 -0.552230 0.995058 0
M  V30 12 C -1.725005 -0.694531 1.897715 0
M  V30 13 C -2.976140 -0.319311 1.467740 0
M  V30 14 C -4.086458 -0.468179 2.391189 0
M  V30 15 O -3.970072 -0.886211 3.569681 0
M  V30 16 O -5.417654 -0.220455 2.239118 0
M  V30 17 C -6.410301 -0.406606 3.226050 0
M  V30 18 C -7.250633 0.800383 3.492807 0
M  V30 19 C -7.357365 -1.460412 2.619096 0
M  V30 20 C -3.219754 0.168107 0.207756 0
M  V30 21 C -4.506023 0.577588 -0.317723 0
M  V30 22 C -5.484772 1.503934 0.022752 0
M  V30 23 N -6.480373 1.440650 -0.873263 0
M  V30 24 C -7.662818 2.269318 -0.826843 0
M  V30 25 C -6.186862 0.501680 -1.792183 0
M  V30 26 C -6.936694 0.101738 -2.902571 0
M  V30 27 C -6.428179 -0.883667 -3.702571 0
M  V30 28 C -5.218460 -1.461168 -3.424049 0
M  V30 29 C -4.496694 -1.052874 -2.326952 0
M  V30 30 C -4.961513 -0.059605 -1.479930 0
M  V30 31 N -2.151619 0.258915 -0.593798 0
M  V30 32 C 2.384695 -0.014184 -2.189765 0
M  V30 33 O 1.875570 0.628186 -3.308098 0
M  V30 34 C 2.744949 0.920147 -4.384134 0
M  V30 35 C 3.706149 -0.380896 -2.082853 0
M  V30 36 C 4.229841 -1.019892 -0.979767 0
M  V30 37 N 5.598855 -1.349519 -0.987389 0
M  V30 38 C 6.183654 -2.694680 -0.943072 0
M  V30 39 C 6.615630 -0.287906 -1.036769 0
M  V30 40 C 7.365942 -0.235898 0.280681 0
M  V30 41 N 6.491480 0.042493 1.387214 0
M  V30 42 C 5.962171 1.388536 1.353645 0
M  V30 43 C 7.058394 -0.202813 2.678846 0
M  V30 44 H 5.195732 -3.247365 3.956512 0
M  V30 45 H 5.158206 -4.587812 3.994787 0
M  V30 46 H 4.125683 -5.356865 1.979163 0
M  V30 47 H 4.350560 -1.653611 2.099889 0
M  V30 48 H 1.470365 -1.188460 0.806089 0
M  V30 49 H -0.151595 0.499968 -2.145051 0
M  V30 50 H -1.517181 -1.076881 2.877533 0
M  V30 51 H -6.017908 -0.780728 4.197010 0
M  V30 52 H -6.723803 1.393854 4.271401 0
M  V30 53 H -7.497655 1.400986 2.600614 0
M  V30 54 H -8.210067 0.460252 3.932847 0
M  V30 55 H -6.687579 -2.332850 2.354856 0
M  V30 56 H -7.704700 -1.058114 1.652912 0
M  V30 57 H -8.154229 -1.746384 3.304660 0
M  V30 58 H -5.350632 2.122995 0.887882 0
M  V30 59 H -8.317204 2.063724 0.047348 0
M  V30 60 H -8.306136 2.083814 -1.721673 0
M  V30 61 H -7.411855 3.358430 -0.789577 0
M  V30 62 H -7.889038 0.578960 -3.095968 0
M  V30 63 H -7.073669 -1.140259 -4.552706 0
M  V30 64 H -4.852991 -2.233479 -4.080323 0
M  V30 65 H -3.543055 -1.505461 -2.106226 0
M  V30 66 H 3.686820 1.405043 -4.024377 0
M  V30 67 H 3.030077 0.039072 -4.963634 0
M  V30 68 H 2.263286 1.615962 -5.116303 0
M  V30 69 H 4.365381 -0.151691 -2.913841 0
M  V30 70 H 5.514777 -3.428960 -1.440969 0
M  V30 71 H 7.155003 -2.725266 -1.510481 0
M  V30 72 H 6.466993 -2.983519 0.089234 0
M  V30 73 H 6.215066 0.677422 -1.354519 0
M  V30 74 H 7.342956 -0.597206 -1.813778 0
M  V30 75 H 8.102526 0.577879 0.202121 0
M  V30 76 H 7.929632 -1.167824 0.415591 0
M  V30 77 H 6.289545 1.952540 2.250063 0
M  V30 78 H 4.843687 1.340320 1.286009 0
M  V30 79 H 6.401729 1.897182 0.469180 0
M  V30 80 H 6.569876 -1.083846 3.190478 0
M  V30 81 H 8.156997 -0.405383 2.656082 0
M  V30 82 H 6.846244 0.652529 3.372742 0
M  V30 END ATOM
M  V30 BEGIN BOND
M  V30 1 2 1 2
M  V30 2 1 2 3
M  V30 3 2 3 4
M  V30 4 1 3 5
M  V30 5 1 5 6
M  V30 6 2 6 7
M  V30 7 1 7 8
M  V30 8 1 8 9
M  V30 9 1 9 10
M  V30 10 2 10 11
M  V30 11 1 11 12
M  V30 12 2 12 13
M  V30 13 1 13 14
M  V30 14 2 14 15
M  V30 15 1 14 16
M  V30 16 1 16 17
M  V30 17 1 17 18
M  V30 18 1 17 19
M  V30 19 1 13 20
M  V30 20 1 20 21
M  V30 21 2 21 22
M  V30 22 1 22 23
M  V30 23 1 23 24
M  V30 24 1 23 25
M  V30 25 2 25 26
M  V30 26 1 26 27
M  V30 27 2 27 28
M  V30 28 1 28 29
M  V30 29 2 29 30
M  V30 30 2 20 31
M  V30 31 2 8 32
M  V30 32 1 32 33
M  V30 33 1 33 34
M  V30 34 1 32 35
M  V30 35 2 35 36
M  V30 36 1 36 37
M  V30 37 1 37 38
M  V30 38 1 37 39
M  V30 39 1 39 40
M  V30 40 1 40 41
M  V30 41 1 41 42
M  V30 42 1 41 43
M  V30 43 1 36 6
M  V30 44 1 31 10
M  V30 45 1 30 21
M  V30 46 1 30 25
M  V30 47 1 1 44
M  V30 48 1 1 45
M  V30 49 1 2 46
M  V30 50 1 5 47
M  V30 51 1 7 48
M  V30 52 1 9 49
M  V30 53 1 12 50
M  V30 54 1 17 51
M  V30 55 1 18 52
M  V30 56 1 18 53
M  V30 57 1 18 54
M  V30 58 1 19 55
M  V30 59 1 19 56
M  V30 60 1 19 57
M  V30 61 1 22 58
M  V30 62 1 24 59
M  V30 63 1 24 60
M  V30 64 1 24 61
M  V30 65 1 26 62
M  V30 66 1 27 63
M  V30 67 1 28 64
M  V30 68 1 29 65
M  V30 69 1 34 66
M  V30 70 1 34 67
M  V30 71 1 34 68
M  V30 72 1 35 69
M  V30 73 1 38 70
M  V30 74 1 38 71
M  V30 75 1 38 72
M  V30 76 1 39 73
M  V30 77 1 39 74
M  V30 78 1 40 75
M  V30 79 1 40 76
M  V30 80 1 42 77
M  V30 81 1 42 78
M  V30 82 1 42 79
M  V30 83 1 43 80
M  V30 84 1 43 81
M  V30 85 1 43 82
M  V30 END BOND
M  V30 END CTAB
M  END
>  <Dataset>  (629) 
OralDrugs

>  <Ligand_Instance>  (629) 
nan

>  <PDB_ID>  (629) 
nan

>  <Standardized_SMILES>  (629) 
C=CC(=O)Nc1cc(Nc2ncc(C(=O)OC(C)C)c(-c3cn(C)c4ccccc34)n2)c(OC)cc1N(C)CCN(C)C

>  <Name>  (629) 
Mobocertinib

>  <Pocket>  (629) 
nan

>  <ATP_Site>  (629) 
nan

>  <Peripheral>  (629) 
nan

>  <Num_H_Atoms_ProtBoundConf>  (629) 
nan

>  <Num_Resolved_Atoms>  (629) 
nan

>  <Num_Not_Resolved_Atoms>  (629) 
nan

$$$$
CHEMBL86304
     RDKit          3D

  0  0  0  0  0  0  0  0  0  0999 V3000
M  V30 BEGIN CTAB
M  V30 COUNTS 35 36 0 0 0
M  V30 BEGIN ATOM
M  V30 1 O 0.717293 0.191690 1.784992 0
M  V30 2 C -0.356519 0.856899 1.597513 0
M  V30 3 N -1.339304 0.145354 0.862313 0
M  V30 4 C -1.196559 -1.196323 0.351220 0
M  V30 5 C -0.079387 -1.388789 -0.612759 0
M  V30 6 N 0.028039 -2.745505 -1.105308 0
M  V30 7 C 0.446614 -3.566640 0.029621 0
M  V30 8 C 1.083327 -4.851620 -0.472298 0
M  V30 9 O 2.348505 -4.541522 -0.970566 0
M  V30 10 C 2.401191 -3.239367 -1.468662 0
M  V30 11 C 1.071344 -2.853633 -2.108589 0
M  V30 12 C -0.525438 2.217371 2.104344 0
M  V30 13 C -1.652886 2.992089 1.937553 0
M  V30 14 C -1.687267 4.284128 2.475052 0
M  V30 15 C -0.607441 4.814793 3.179088 0
M  V30 16 Cl -0.800443 6.438102 3.789172 0
M  V30 17 C 0.516874 4.027003 3.338555 0
M  V30 18 C 0.534286 2.756848 2.802926 0
M  V30 19 H -2.240369 0.689526 0.699804 0
M  V30 20 H -1.099501 -1.904771 1.228742 0
M  V30 21 H -2.156874 -1.492573 -0.117524 0
M  V30 22 H -0.273820 -0.737601 -1.494354 0
M  V30 23 H 0.890378 -1.035094 -0.184492 0
M  V30 24 H 1.132556 -2.943473 0.632893 0
M  V30 25 H -0.467172 -3.817072 0.601161 0
M  V30 26 H 0.414065 -5.221320 -1.297070 0
M  V30 27 H 1.142662 -5.563048 0.350174 0
M  V30 28 H 3.155214 -3.220983 -2.277675 0
M  V30 29 H 2.659609 -2.515345 -0.669781 0
M  V30 30 H 0.873920 -3.641278 -2.867683 0
M  V30 31 H 1.253043 -1.916982 -2.660396 0
M  V30 32 H -2.472377 2.578249 1.398570 0
M  V30 33 H -2.619580 4.841544 2.300629 0
M  V30 34 H 1.338364 4.463828 3.888370 0
M  V30 35 H 1.461815 2.224060 2.983753 0
M  V30 END ATOM
M  V30 BEGIN BOND
M  V30 1 2 1 2
M  V30 2 1 2 3
M  V30 3 1 3 4
M  V30 4 1 4 5
M  V30 5 1 5 6
M  V30 6 1 6 7
M  V30 7 1 7 8
M  V30 8 1 8 9
M  V30 9 1 9 10
M  V30 10 1 10 11
M  V30 11 1 2 12
M  V30 12 2 12 13
M  V30 13 1 13 14
M  V30 14 2 14 15
M  V30 15 1 15 16
M  V30 16 1 15 17
M  V30 17 2 17 18
M  V30 18 1 11 6
M  V30 19 1 18 12
M  V30 20 1 3 19
M  V30 21 1 4 20
M  V30 22 1 4 21
M  V30 23 1 5 22
M  V30 24 1 5 23
M  V30 25 1 7 24
M  V30 26 1 7 25
M  V30 27 1 8 26
M  V30 28 1 8 27
M  V30 29 1 10 28
M  V30 30 1 10 29
M  V30 31 1 11 30
M  V30 32 1 11 31
M  V30 33 1 13 32
M  V30 34 1 14 33
M  V30 35 1 17 34
M  V30 36 1 18 35
M  V30 END BOND
M  V30 END CTAB
M  END
>  <Dataset>  (630) 
OralDrugs

>  <Ligand_Instance>  (630) 
nan

>  <PDB_ID>  (630) 
nan

>  <Standardized_SMILES>  (630) 
O=C(NCCN1CCOCC1)c1ccc(Cl)cc1

>  <Name>  (630) 
Moclobemide

>  <Pocket>  (630) 
nan

>  <ATP_Site>  (630) 
nan

>  <Peripheral>  (630) 
nan

>  <Num_H_Atoms_ProtBoundConf>  (630) 
nan

>  <Num_Resolved_Atoms>  (630) 
nan

>  <Num_Not_Resolved_Atoms>  (630) 
nan

$$$$
CHEMBL1373
     RDKit          3D

  0  0  0  0  0  0  0  0  0  0999 V3000
M  V30 BEGIN CTAB
M  V30 COUNTS 34 35 0 0 0
M  V30 BEGIN ATOM
M  V30 1 N -2.393183 -2.371890 2.866138 0
M  V30 2 C -1.317044 -2.640977 1.973472 0
M  V30 3 O -2.311811 -2.705426 1.214707 0
M  V30 4 C 0.084575 -2.670348 2.446690 0
M  V30 5 S 0.819743 -1.115881 2.529804 0 CHG=1 VAL=3
M  V30 6 O 2.420411 -1.289566 3.088482 0 CHG=-1 VAL=1
M  V30 7 C 0.828566 -0.070355 1.166719 0
M  V30 8 C 1.497057 -0.544904 -0.068652 0
M  V30 9 C 1.278492 -1.775128 -0.657325 0
M  V30 10 C 1.912417 -2.196857 -1.811283 0
M  V30 11 C 2.821899 -1.368668 -2.440377 0
M  V30 12 C 3.102855 -0.119301 -1.921669 0
M  V30 13 C 2.432442 0.222363 -0.775971 0
M  V30 14 C -0.425279 0.670493 0.868802 0
M  V30 15 C -0.727410 1.948409 1.368672 0
M  V30 16 C -1.901356 2.588092 1.030248 0
M  V30 17 C -2.829064 2.012747 0.196993 0
M  V30 18 C -2.588969 0.759837 -0.323860 0
M  V30 19 C -1.403648 0.161615 0.039078 0
M  V30 20 H -2.145022 -1.627945 3.582421 0
M  V30 21 H -3.118672 -2.093704 3.578173 0
M  V30 22 H 0.005211 -3.051225 3.514583 0
M  V30 23 H 0.691011 -3.458482 1.954127 0
M  V30 24 H 1.522025 0.793221 1.506089 0
M  V30 25 H 0.570240 -2.453463 -0.199374 0
M  V30 26 H 1.717527 -3.168194 -2.243308 0
M  V30 27 H 3.326987 -1.679890 -3.341893 0
M  V30 28 H 3.800894 0.578524 -2.356997 0
M  V30 29 H 2.645527 1.220978 -0.348672 0
M  V30 30 H 0.021369 2.402238 2.039443 0
M  V30 31 H -2.097250 3.582216 1.436685 0
M  V30 32 H -3.756133 2.490749 -0.081498 0
M  V30 33 H -3.274051 0.241859 -0.992189 0
M  V30 34 H -1.211961 -0.814621 -0.380018 0
M  V30 END ATOM
M  V30 BEGIN BOND
M  V30 1 1 1 2
M  V30 2 2 2 3
M  V30 3 1 2 4
M  V30 4 1 4 5
M  V30 5 1 5 6
M  V30 6 1 5 7
M  V30 7 1 7 8
M  V30 8 2 8 9
M  V30 9 1 9 10
M  V30 10 2 10 11
M  V30 11 1 11 12
M  V30 12 2 12 13
M  V30 13 1 7 14
M  V30 14 2 14 15
M  V30 15 1 15 16
M  V30 16 2 16 17
M  V30 17 1 17 18
M  V30 18 2 18 19
M  V30 19 1 13 8
M  V30 20 1 19 14
M  V30 21 1 1 20
M  V30 22 1 1 21
M  V30 23 1 4 22
M  V30 24 1 4 23
M  V30 25 1 7 24
M  V30 26 1 9 25
M  V30 27 1 10 26
M  V30 28 1 11 27
M  V30 29 1 12 28
M  V30 30 1 13 29
M  V30 31 1 15 30
M  V30 32 1 16 31
M  V30 33 1 17 32
M  V30 34 1 18 33
M  V30 35 1 19 34
M  V30 END BOND
M  V30 END CTAB
M  END
>  <Dataset>  (631) 
OralDrugs

>  <Ligand_Instance>  (631) 
nan

>  <PDB_ID>  (631) 
nan

>  <Standardized_SMILES>  (631) 
NC(=O)C[S+]([O-])C(c1ccccc1)c1ccccc1

>  <Name>  (631) 
Modafinil

>  <Pocket>  (631) 
nan

>  <ATP_Site>  (631) 
nan

>  <Peripheral>  (631) 
nan

>  <Num_H_Atoms_ProtBoundConf>  (631) 
nan

>  <Num_Resolved_Atoms>  (631) 
nan

>  <Num_Not_Resolved_Atoms>  (631) 
nan

$$$$
CHEMBL259972
     RDKit          3D

  0  0  0  0  0  0  0  0  0  0999 V3000
M  V30 BEGIN CTAB
M  V30 COUNTS 42 44 0 0 0
M  V30 BEGIN ATOM
M  V30 1 C 2.154863 -5.566851 3.677165 0
M  V30 2 O 2.117287 -5.509754 2.263521 0
M  V30 3 C 2.146360 -4.275122 1.628385 0
M  V30 4 C 2.212076 -3.108497 2.362482 0
M  V30 5 C 2.238815 -1.901924 1.695574 0
M  V30 6 C 2.202571 -1.811275 0.322872 0
M  V30 7 C 2.215357 -0.619699 -0.510369 0
M  V30 8 N 3.250964 -0.369501 -1.303018 0
M  V30 9 O 3.069492 0.728043 -1.952985 0
M  V30 10 C 1.922550 1.274113 -1.643852 0
M  V30 11 C 1.189752 2.499331 -2.050761 0
M  V30 12 C 1.312733 3.521016 -0.957248 0
M  V30 13 O 1.961170 3.279992 0.101533 0
M  V30 14 O 0.686723 4.753739 -1.143092 0
M  V30 15 C 1.323052 0.440964 -0.709617 0
M  V30 16 C 0.061832 0.491333 0.005890 0
M  V30 17 C -0.210708 0.655564 1.345740 0
M  V30 18 C -1.507492 0.661771 1.808544 0
M  V30 19 C -2.592662 0.507009 0.973875 0
M  V30 20 O -3.895898 0.510536 1.420135 0
M  V30 21 C -4.309129 0.664942 2.741292 0
M  V30 22 C -2.334982 0.342646 -0.364971 0
M  V30 23 C -1.024260 0.333888 -0.850400 0
M  V30 24 C 2.136085 -2.985320 -0.436011 0
M  V30 25 C 2.108710 -4.210656 0.235953 0
M  V30 26 H 1.857902 -6.566905 4.045740 0
M  V30 27 H 1.367933 -4.848997 4.031231 0
M  V30 28 H 3.136921 -5.228090 4.057288 0
M  V30 29 H 2.244455 -3.096987 3.443738 0
M  V30 30 H 2.291367 -0.972107 2.204013 0
M  V30 31 H 0.131244 2.299531 -2.238020 0
M  V30 32 H 1.612799 2.958508 -2.949131 0
M  V30 33 H 1.065966 5.501947 -0.549420 0
M  V30 34 H 0.685345 0.772058 1.937163 0
M  V30 35 H -1.647344 0.795119 2.871208 0
M  V30 36 H -3.529528 0.275325 3.439733 0
M  V30 37 H -5.222957 0.030774 2.919756 0
M  V30 38 H -4.557534 1.724670 2.954368 0
M  V30 39 H -3.195413 0.219915 -1.029872 0
M  V30 40 H -0.972543 0.194144 -1.928069 0
M  V30 41 H 2.103620 -3.023726 -1.511370 0
M  V30 42 H 2.057398 -5.134011 -0.327279 0
M  V30 END ATOM
M  V30 BEGIN BOND
M  V30 1 1 1 2
M  V30 2 1 2 3
M  V30 3 2 3 4
M  V30 4 1 4 5
M  V30 5 2 5 6
M  V30 6 1 6 7
M  V30 7 2 7 8
M  V30 8 1 8 9
M  V30 9 1 9 10
M  V30 10 1 10 11
M  V30 11 1 11 12
M  V30 12 2 12 13
M  V30 13 1 12 14
M  V30 14 2 10 15
M  V30 15 1 15 16
M  V30 16 2 16 17
M  V30 17 1 17 18
M  V30 18 2 18 19
M  V30 19 1 19 20
M  V30 20 1 20 21
M  V30 21 1 19 22
M  V30 22 2 22 23
M  V30 23 1 6 24
M  V30 24 2 24 25
M  V30 25 1 25 3
M  V30 26 1 15 7
M  V30 27 1 23 16
M  V30 28 1 1 26
M  V30 29 1 1 27
M  V30 30 1 1 28
M  V30 31 1 4 29
M  V30 32 1 5 30
M  V30 33 1 11 31
M  V30 34 1 11 32
M  V30 35 1 14 33
M  V30 36 1 17 34
M  V30 37 1 18 35
M  V30 38 1 21 36
M  V30 39 1 21 37
M  V30 40 1 21 38
M  V30 41 1 22 39
M  V30 42 1 23 40
M  V30 43 1 24 41
M  V30 44 1 25 42
M  V30 END BOND
M  V30 END CTAB
M  END
>  <Dataset>  (632) 
OralDrugs

>  <Ligand_Instance>  (632) 
nan

>  <PDB_ID>  (632) 
nan

>  <Standardized_SMILES>  (632) 
COc1ccc(-c2noc(CC(=O)O)c2-c2ccc(OC)cc2)cc1

>  <Name>  (632) 
Mofezolac

>  <Pocket>  (632) 
nan

>  <ATP_Site>  (632) 
nan

>  <Peripheral>  (632) 
nan

>  <Num_H_Atoms_ProtBoundConf>  (632) 
nan

>  <Num_Resolved_Atoms>  (632) 
nan

>  <Num_Not_Resolved_Atoms>  (632) 
nan

$$$$
CHEMBL460
     RDKit          3D

  0  0  0  0  0  0  0  0  0  0999 V3000
M  V30 BEGIN CTAB
M  V30 COUNTS 44 46 0 0 0
M  V30 BEGIN ATOM
M  V30 1 C -0.453128 -1.391096 3.669035 0
M  V30 2 C -1.106620 -2.228150 2.623888 0
M  V30 3 C -0.196775 -2.570841 1.495305 0
M  V30 4 C 0.818800 -3.514964 1.497083 0
M  V30 5 C 1.205902 -4.378547 2.635478 0
M  V30 6 N 1.387000 -3.491954 0.255113 0
M  V30 7 C 0.783422 -2.592317 -0.508741 0
M  V30 8 C -0.220661 -1.992743 0.242265 0
M  V30 9 C -1.060964 -0.939883 -0.370790 0
M  V30 10 O -2.234284 -0.833737 0.060789 0
M  V30 11 C -0.494814 -0.087745 -1.433394 0
M  V30 12 C -0.448188 1.365205 -1.158186 0
M  V30 13 N 0.281149 1.841999 -0.064003 0
M  V30 14 C 0.318750 3.256994 0.120370 0
M  V30 15 C 1.669294 3.593867 0.683463 0
M  V30 16 O 2.016329 2.804818 1.765286 0
M  V30 17 C 0.991577 1.983876 2.190272 0
M  V30 18 C 0.481141 1.074461 1.088883 0
M  V30 19 C 0.836763 -0.600223 -1.931489 0
M  V30 20 C 0.931923 -2.110096 -1.908887 0
M  V30 21 H 0.658289 -1.373758 3.595829 0
M  V30 22 H -0.677045 -1.823950 4.664381 0
M  V30 23 H -0.824526 -0.344840 3.695514 0
M  V30 24 H -1.407076 -3.194489 3.074171 0
M  V30 25 H -2.025053 -1.734464 2.260968 0
M  V30 26 H 0.664409 -5.346214 2.524512 0
M  V30 27 H 2.274795 -4.593347 2.607370 0
M  V30 28 H 0.951355 -3.853939 3.573763 0
M  V30 29 H 2.184423 -4.077652 -0.094393 0
M  V30 30 H -1.198592 -0.214991 -2.314401 0
M  V30 31 H -1.521238 1.722898 -1.132691 0
M  V30 32 H -0.052245 1.850145 -2.086415 0
M  V30 33 H 0.257858 3.725936 -0.885519 0
M  V30 34 H -0.462061 3.571075 0.818693 0
M  V30 35 H 1.649866 4.649173 1.024446 0
M  V30 36 H 2.475853 3.535773 -0.096014 0
M  V30 37 H 0.146963 2.633472 2.513631 0
M  V30 38 H 1.291375 1.362164 3.067388 0
M  V30 39 H -0.422926 0.599109 1.505284 0
M  V30 40 H 1.324896 0.368935 0.899637 0
M  V30 41 H 1.680094 -0.138260 -1.407245 0
M  V30 42 H 0.945922 -0.307460 -3.017282 0
M  V30 43 H 1.897555 -2.383303 -2.369368 0
M  V30 44 H 0.078382 -2.491757 -2.496411 0
M  V30 END ATOM
M  V30 BEGIN BOND
M  V30 1 1 1 2
M  V30 2 1 2 3
M  V30 3 2 3 4
M  V30 4 1 4 5
M  V30 5 1 4 6
M  V30 6 1 6 7
M  V30 7 2 7 8
M  V30 8 1 8 9
M  V30 9 2 9 10
M  V30 10 1 9 11
M  V30 11 1 11 12
M  V30 12 1 12 13
M  V30 13 1 13 14
M  V30 14 1 14 15
M  V30 15 1 15 16
M  V30 16 1 16 17
M  V30 17 1 17 18
M  V30 18 1 11 19
M  V30 19 1 19 20
M  V30 20 1 8 3
M  V30 21 1 18 13
M  V30 22 1 20 7
M  V30 23 1 1 21
M  V30 24 1 1 22
M  V30 25 1 1 23
M  V30 26 1 2 24
M  V30 27 1 2 25
M  V30 28 1 5 26
M  V30 29 1 5 27
M  V30 30 1 5 28
M  V30 31 1 6 29
M  V30 32 1 11 30
M  V30 33 1 12 31
M  V30 34 1 12 32
M  V30 35 1 14 33
M  V30 36 1 14 34
M  V30 37 1 15 35
M  V30 38 1 15 36
M  V30 39 1 17 37
M  V30 40 1 17 38
M  V30 41 1 18 39
M  V30 42 1 18 40
M  V30 43 1 19 41
M  V30 44 1 19 42
M  V30 45 1 20 43
M  V30 46 1 20 44
M  V30 END BOND
M  V30 END CTAB
M  END
>  <Dataset>  (633) 
OralDrugs

>  <Ligand_Instance>  (633) 
nan

>  <PDB_ID>  (633) 
nan

>  <Standardized_SMILES>  (633) 
CCc1c(C)[nH]c2c1C(=O)C(CN1CCOCC1)CC2

>  <Name>  (633) 
Molindone

>  <Pocket>  (633) 
nan

>  <ATP_Site>  (633) 
nan

>  <Peripheral>  (633) 
nan

>  <Num_H_Atoms_ProtBoundConf>  (633) 
nan

>  <Num_Resolved_Atoms>  (633) 
nan

>  <Num_Not_Resolved_Atoms>  (633) 
nan

$$$$
CHEMBL1078178
     RDKit          3D

  0  0  0  0  0  0  0  0  0  0999 V3000
M  V30 BEGIN CTAB
M  V30 COUNTS 53 56 0 0 0
M  V30 BEGIN ATOM
M  V30 1 N -7.418228 2.186373 -2.773533 0
M  V30 2 C -6.545571 2.931230 -2.619853 0
M  V30 3 C -5.440234 3.881919 -2.402006 0
M  V30 4 N -4.332226 3.128627 -1.852971 0
M  V30 5 C -3.221701 3.976658 -1.614404 0
M  V30 6 O -3.468810 5.185079 -1.939282 0
M  V30 7 C -1.945191 3.518479 -1.061651 0
M  V30 8 C -1.692692 2.202071 -0.722436 0
M  V30 9 C -0.446241 1.898408 -0.208288 0
M  V30 10 C 0.575482 2.796994 -0.001938 0
M  V30 11 C 1.869798 2.423779 0.543389 0
M  V30 12 C 2.844883 3.370720 0.726278 0
M  V30 13 C 4.056154 2.973803 1.247852 0
M  V30 14 N 4.267382 1.692654 1.565793 0
M  V30 15 C 3.333668 0.746776 1.397865 0
M  V30 16 N 3.639240 -0.588836 1.763820 0
M  V30 17 C 2.826306 -1.749036 1.669979 0
M  V30 18 C 1.553947 -1.808535 1.147897 0
M  V30 19 C 0.779872 -2.945314 1.069550 0
M  V30 20 C 1.281891 -4.123783 1.536911 0
M  V30 21 N 0.517324 -5.317082 1.471023 0
M  V30 22 C -0.768096 -5.483446 0.861446 0
M  V30 23 C -1.746863 -5.917788 1.953752 0
M  V30 24 O -1.422974 -7.245322 2.229494 0
M  V30 25 C -0.197385 -7.223131 2.874214 0
M  V30 26 C 0.904882 -6.600651 2.022594 0
M  V30 27 C 2.542110 -4.114759 2.064598 0
M  V30 28 C 3.287985 -2.964367 2.128038 0
M  V30 29 N 2.166351 1.164961 0.888529 0
M  V30 30 C 0.274051 4.089903 -0.354911 0
M  V30 31 C -0.965326 4.483426 -0.883100 0
M  V30 32 H -5.781524 4.634651 -1.691600 0
M  V30 33 H -5.217168 4.329896 -3.380659 0
M  V30 34 H -4.248615 2.105829 -1.623745 0
M  V30 35 H -2.468259 1.464333 -0.868875 0
M  V30 36 H -0.319105 0.855070 0.034174 0
M  V30 37 H 2.760506 4.400497 0.502552 0
M  V30 38 H 4.867080 3.669389 1.417484 0
M  V30 39 H 4.596619 -0.751432 2.158905 0
M  V30 40 H 1.117255 -0.898576 0.764512 0
M  V30 41 H -0.220795 -2.848200 0.628752 0
M  V30 42 H -0.740333 -6.329923 0.128687 0
M  V30 43 H -1.212634 -4.577244 0.420575 0
M  V30 44 H -2.796610 -5.789443 1.612660 0
M  V30 45 H -1.627549 -5.342874 2.877770 0
M  V30 46 H 0.111547 -8.270225 3.066219 0
M  V30 47 H -0.268977 -6.726277 3.875322 0
M  V30 48 H 1.015741 -7.303669 1.147379 0
M  V30 49 H 1.793694 -6.590155 2.648691 0
M  V30 50 H 3.019770 -5.011523 2.459024 0
M  V30 51 H 4.289721 -3.014104 2.560614 0
M  V30 52 H 0.971864 4.899171 -0.250306 0
M  V30 53 H -1.165947 5.511018 -1.149180 0
M  V30 END ATOM
M  V30 BEGIN BOND
M  V30 1 3 1 2
M  V30 2 1 2 3
M  V30 3 1 3 4
M  V30 4 1 4 5
M  V30 5 2 5 6
M  V30 6 1 5 7
M  V30 7 2 7 8
M  V30 8 1 8 9
M  V30 9 2 9 10
M  V30 10 1 10 11
M  V30 11 2 11 12
M  V30 12 1 12 13
M  V30 13 2 13 14
M  V30 14 1 14 15
M  V30 15 1 15 16
M  V30 16 1 16 17
M  V30 17 2 17 18
M  V30 18 1 18 19
M  V30 19 2 19 20
M  V30 20 1 20 21
M  V30 21 1 21 22
M  V30 22 1 22 23
M  V30 23 1 23 24
M  V30 24 1 24 25
M  V30 25 1 25 26
M  V30 26 1 20 27
M  V30 27 2 27 28
M  V30 28 2 15 29
M  V30 29 1 10 30
M  V30 30 2 30 31
M  V30 31 1 31 7
M  V30 32 1 29 11
M  V30 33 1 28 17
M  V30 34 1 26 21
M  V30 35 1 3 32
M  V30 36 1 3 33
M  V30 37 1 4 34
M  V30 38 1 8 35
M  V30 39 1 9 36
M  V30 40 1 12 37
M  V30 41 1 13 38
M  V30 42 1 16 39
M  V30 43 1 18 40
M  V30 44 1 19 41
M  V30 45 1 22 42
M  V30 46 1 22 43
M  V30 47 1 23 44
M  V30 48 1 23 45
M  V30 49 1 25 46
M  V30 50 1 25 47
M  V30 51 1 26 48
M  V30 52 1 26 49
M  V30 53 1 27 50
M  V30 54 1 28 51
M  V30 55 1 30 52
M  V30 56 1 31 53
M  V30 END BOND
M  V30 END CTAB
M  END
>  <Dataset>  (634) 
OralDrugs

>  <Ligand_Instance>  (634) 
nan

>  <PDB_ID>  (634) 
nan

>  <Standardized_SMILES>  (634) 
N#CCNC(=O)c1ccc(-c2ccnc(Nc3ccc(N4CCOCC4)cc3)n2)cc1

>  <Name>  (634) 
Momelotinib

>  <Pocket>  (634) 
nan

>  <ATP_Site>  (634) 
nan

>  <Peripheral>  (634) 
nan

>  <Num_H_Atoms_ProtBoundConf>  (634) 
nan

>  <Num_Resolved_Atoms>  (634) 
nan

>  <Num_Not_Resolved_Atoms>  (634) 
nan

$$$$
CHEMBL589586
     RDKit          3D

  0  0  0  0  0  0  0  0  0  0999 V3000
M  V30 BEGIN CTAB
M  V30 COUNTS 15 14 0 0 0
M  V30 BEGIN ATOM
M  V30 1 C 1.013662 -2.877931 0.288902 0
M  V30 2 O 0.975336 -1.536054 0.757215 0
M  V30 3 C 1.764316 -0.512820 0.254901 0
M  V30 4 O 2.602306 -0.670388 -0.675568 0
M  V30 5 C 1.609390 0.815293 0.841306 0
M  V30 6 C 0.761795 1.069185 1.812577 0
M  V30 7 C 0.561187 2.372531 2.439059 0
M  V30 8 O -0.270095 2.579180 3.378118 0
M  V30 9 O 1.228019 3.528513 2.107412 0
M  V30 10 H 1.831465 -3.085845 -0.406495 0
M  V30 11 H 1.028691 -3.598040 1.143061 0
M  V30 12 H 0.064432 -3.111849 -0.267418 0
M  V30 13 H 2.204082 1.663330 0.487192 0
M  V30 14 H 0.150358 0.264297 2.198051 0
M  V30 15 H 0.765816 4.399436 1.851006 0
M  V30 END ATOM
M  V30 BEGIN BOND
M  V30 1 1 1 2
M  V30 2 1 2 3
M  V30 3 2 3 4
M  V30 4 1 3 5
M  V30 5 2 5 6
M  V30 6 1 6 7
M  V30 7 2 7 8
M  V30 8 1 7 9
M  V30 9 1 1 10
M  V30 10 1 1 11
M  V30 11 1 1 12
M  V30 12 1 5 13
M  V30 13 1 6 14
M  V30 14 1 9 15
M  V30 END BOND
M  V30 END CTAB
M  END
>  <Dataset>  (635) 
OralDrugs

>  <Ligand_Instance>  (635) 
nan

>  <PDB_ID>  (635) 
nan

>  <Standardized_SMILES>  (635) 
COC(=O)/C=C/C(=O)O

>  <Name>  (635) 
Monomethyl Fumarate

>  <Pocket>  (635) 
nan

>  <ATP_Site>  (635) 
nan

>  <Peripheral>  (635) 
nan

>  <Num_H_Atoms_ProtBoundConf>  (635) 
nan

>  <Num_Resolved_Atoms>  (635) 
nan

>  <Num_Not_Resolved_Atoms>  (635) 
nan

$$$$
CHEMBL787
     RDKit          3D

  0  0  0  0  0  0  0  0  0  0999 V3000
M  V30 BEGIN CTAB
M  V30 COUNTS 77 81 0 0 0
M  V30 BEGIN ATOM
M  V30 1 C -0.244037 -4.689875 4.929741 0
M  V30 2 C -0.714545 -3.446947 4.169134 0
M  V30 3 C -2.099544 -3.152987 4.736195 0
M  V30 4 O -0.768870 -3.832757 2.854216 0
M  V30 5 C 0.205582 -2.321530 4.389051 0
M  V30 6 C 1.258763 -2.519105 5.292397 0
M  V30 7 C 2.169310 -1.574259 5.643052 0
M  V30 8 C 2.078826 -0.314852 5.086084 0
M  V30 9 C 1.043624 -0.118281 4.195843 0
M  V30 10 C 0.095123 -1.079571 3.820580 0
M  V30 11 C -0.918323 -0.714478 2.811601 0
M  V30 12 C -0.541251 -1.000881 1.389633 0
M  V30 13 C -1.596014 -0.663385 0.396636 0 CFG=1
M  V30 14 S -2.165105 0.982565 0.246856 0
M  V30 15 C -3.142951 1.733323 1.493630 0
M  V30 16 C -4.531934 1.109088 1.655878 0
M  V30 17 C -5.444109 1.133957 0.448822 0
M  V30 18 C -5.731100 2.509297 -0.016515 0
M  V30 19 O -6.504084 2.461378 -1.033557 0
M  V30 20 O -5.484353 3.852200 0.224389 0
M  V30 21 C -5.230204 1.660862 2.918207 0
M  V30 22 C -4.865649 0.229616 2.788790 0
M  V30 23 C -1.280996 -1.279481 -0.954619 0
M  V30 24 C -2.078689 -2.210221 -1.594758 0
M  V30 25 C -1.636629 -2.680458 -2.814009 0
M  V30 26 C -0.457317 -2.238991 -3.359086 0
M  V30 27 C 0.336210 -1.318142 -2.730254 0
M  V30 28 C 1.596927 -0.844984 -3.288297 0
M  V30 29 C 2.117432 -1.233994 -4.424440 0
M  V30 30 C 3.404455 -0.710555 -4.930176 0
M  V30 31 C 3.912627 -1.146893 -6.118907 0
M  V30 32 C 5.120603 -0.636900 -6.560236 0
M  V30 33 C 5.778919 0.297106 -5.789805 0
M  V30 34 C 6.981549 0.855947 -6.149549 0
M  V30 35 C 7.658581 1.782121 -5.409591 0
M  V30 36 C 7.116078 2.206099 -4.205295 0
M  V30 37 Cl 7.901450 3.385135 -3.185614 0
M  V30 38 C 5.904556 1.665935 -3.807552 0
M  V30 39 C 5.241466 0.724830 -4.584652 0
M  V30 40 N 4.053845 0.211989 -4.168331 0
M  V30 41 C -0.077545 -0.827956 -1.510002 0
M  V30 42 H 0.749402 -5.025788 4.608128 0
M  V30 43 H -0.365212 -4.479804 5.996828 0
M  V30 44 H -1.021956 -5.468138 4.687894 0
M  V30 45 H -2.430632 -3.895245 5.487542 0
M  V30 46 H -2.835700 -3.226643 3.890907 0
M  V30 47 H -2.136042 -2.157624 5.236003 0
M  V30 48 H -1.544447 -4.359120 2.605164 0
M  V30 49 H 1.405629 -3.491570 5.783061 0
M  V30 50 H 2.970929 -1.761558 6.344596 0
M  V30 51 H 2.751128 0.506121 5.298676 0
M  V30 52 H 0.957069 0.882612 3.741786 0
M  V30 53 H -1.089187 0.389983 2.954600 0
M  V30 54 H -1.902041 -1.191396 3.010488 0
M  V30 55 H 0.351314 -0.301236 1.173694 0
M  V30 56 H -0.073837 -1.984132 1.220072 0
M  V30 57 H -2.498174 -1.293770 0.709906 0
M  V30 58 H -3.402799 2.783138 1.111932 0
M  V30 59 H -2.722313 1.929504 2.474168 0
M  V30 60 H -6.416905 0.672731 0.710913 0
M  V30 61 H -5.055559 0.536107 -0.399005 0
M  V30 62 H -4.912251 4.345550 -0.464470 0
M  V30 63 H -6.312755 1.860071 2.879196 0
M  V30 64 H -4.655126 2.221407 3.652235 0
M  V30 65 H -5.637538 -0.552589 2.563591 0
M  V30 66 H -4.020157 -0.194595 3.361350 0
M  V30 67 H -2.988251 -2.490750 -1.078962 0
M  V30 68 H -2.276588 -3.417492 -3.312083 0
M  V30 69 H -0.184349 -2.657705 -4.316555 0
M  V30 70 H 2.192491 -0.112064 -2.762517 0
M  V30 71 H 1.588286 -1.966216 -5.017984 0
M  V30 72 H 3.350870 -1.882575 -6.682097 0
M  V30 73 H 5.550398 -0.962041 -7.498464 0
M  V30 74 H 7.407472 0.520832 -7.097288 0
M  V30 75 H 8.610375 2.205129 -5.724164 0
M  V30 76 H 5.444216 1.960510 -2.886352 0
M  V30 77 H 0.551307 -0.098593 -1.012611 0
M  V30 END ATOM
M  V30 BEGIN BOND
M  V30 1 1 1 2
M  V30 2 1 2 3
M  V30 3 1 2 4
M  V30 4 1 2 5
M  V30 5 2 5 6
M  V30 6 1 6 7
M  V30 7 2 7 8
M  V30 8 1 8 9
M  V30 9 2 9 10
M  V30 10 1 10 11
M  V30 11 1 11 12
M  V30 12 1 12 13
M  V30 13 1 13 14
M  V30 14 1 14 15
M  V30 15 1 15 16
M  V30 16 1 16 17
M  V30 17 1 17 18
M  V30 18 2 18 19
M  V30 19 1 18 20
M  V30 20 1 16 21
M  V30 21 1 21 22
M  V30 22 1 13 23
M  V30 23 2 23 24
M  V30 24 1 24 25
M  V30 25 2 25 26
M  V30 26 1 26 27
M  V30 27 1 27 28
M  V30 28 2 28 29
M  V30 29 1 29 30
M  V30 30 2 30 31
M  V30 31 1 31 32
M  V30 32 2 32 33
M  V30 33 1 33 34
M  V30 34 2 34 35
M  V30 35 1 35 36
M  V30 36 1 36 37
M  V30 37 2 36 38
M  V30 38 1 38 39
M  V30 39 2 39 40
M  V30 40 2 27 41
M  V30 41 1 10 5
M  V30 42 1 22 16
M  V30 43 1 41 23
M  V30 44 1 40 30
M  V30 45 1 39 33
M  V30 46 1 1 42
M  V30 47 1 1 43
M  V30 48 1 1 44
M  V30 49 1 3 45
M  V30 50 1 3 46
M  V30 51 1 3 47
M  V30 52 1 4 48
M  V30 53 1 6 49
M  V30 54 1 7 50
M  V30 55 1 8 51
M  V30 56 1 9 52
M  V30 57 1 11 53
M  V30 58 1 11 54
M  V30 59 1 12 55
M  V30 60 1 12 56
M  V30 61 1 13 57 CFG=1
M  V30 62 1 15 58
M  V30 63 1 15 59
M  V30 64 1 17 60
M  V30 65 1 17 61
M  V30 66 1 20 62
M  V30 67 1 21 63
M  V30 68 1 21 64
M  V30 69 1 22 65
M  V30 70 1 22 66
M  V30 71 1 24 67
M  V30 72 1 25 68
M  V30 73 1 26 69
M  V30 74 1 28 70
M  V30 75 1 29 71
M  V30 76 1 31 72
M  V30 77 1 32 73
M  V30 78 1 34 74
M  V30 79 1 35 75
M  V30 80 1 38 76
M  V30 81 1 41 77
M  V30 END BOND
M  V30 END CTAB
M  END
>  <Dataset>  (636) 
OralDrugs

>  <Ligand_Instance>  (636) 
nan

>  <PDB_ID>  (636) 
nan

>  <Standardized_SMILES>  (636) 
CC(C)(O)c1ccccc1CC[C@@H](SCC1(CC(=O)O)CC1)c1cccc(/C=C/c2ccc3ccc(Cl)cc3n2)c1

>  <Name>  (636) 
Montelukast

>  <Pocket>  (636) 
nan

>  <ATP_Site>  (636) 
nan

>  <Peripheral>  (636) 
nan

>  <Num_H_Atoms_ProtBoundConf>  (636) 
nan

>  <Num_Resolved_Atoms>  (636) 
nan

>  <Num_Not_Resolved_Atoms>  (636) 
nan

$$$$
CHEMBL1075
     RDKit          3D

  0  0  0  0  0  0  0  0  0  0999 V3000
M  V30 BEGIN CTAB
M  V30 COUNTS 55 58 0 0 0
M  V30 BEGIN ATOM
M  V30 1 C -1.066729 2.703503 5.146344 0
M  V30 2 C 0.296991 3.302784 5.114788 0
M  V30 3 O 1.331893 2.346576 5.081617 0
M  V30 4 C 1.457533 1.438043 4.061372 0
M  V30 5 O 0.599911 1.528051 3.182987 0
M  V30 6 N 2.458699 0.447486 3.951599 0
M  V30 7 C 2.688389 -0.531023 2.959598 0
M  V30 8 C 3.766398 -1.373110 3.180456 0
M  V30 9 C 4.070928 -2.359252 2.268797 0
M  V30 10 C 3.278971 -2.445176 1.188892 0
M  V30 11 C 2.196884 -1.699845 0.836633 0
M  V30 12 C 1.982025 -0.751365 1.809889 0
M  V30 13 N 1.365496 -1.825485 -0.302835 0
M  V30 14 C 0.302843 -0.913426 -0.523921 0
M  V30 15 O -0.448635 -1.007581 -1.481775 0
M  V30 16 C -0.396884 0.264387 -0.044992 0
M  V30 17 C -1.448773 0.861444 -0.978030 0
M  V30 18 N -2.495923 -0.069694 -1.282811 0
M  V30 19 C -3.345842 -0.389937 -0.156457 0
M  V30 20 C -4.442066 -1.307615 -0.643638 0
M  V30 21 O -5.172108 -0.778938 -1.702669 0
M  V30 22 C -4.272303 -0.592118 -2.763611 0
M  V30 23 C -3.338603 0.511376 -2.309548 0
M  V30 24 C 1.585522 -2.821559 -1.275207 0
M  V30 25 C 0.816612 -3.019727 -2.391768 0
M  V30 26 C 0.950018 -3.962609 -3.370943 0
M  V30 27 C 1.996266 -4.868779 -3.262326 0
M  V30 28 C 2.828941 -4.743803 -2.160541 0
M  V30 29 C 2.578119 -3.756370 -1.262698 0
M  V30 30 S 3.739950 -3.738637 0.062870 0
M  V30 31 H -1.814453 3.176358 4.486384 0
M  V30 32 H -1.064870 1.613752 4.884634 0
M  V30 33 H -1.472321 2.782479 6.174645 0
M  V30 34 H 0.445936 3.908480 6.031702 0
M  V30 35 H 0.447618 4.014205 4.274646 0
M  V30 36 H 3.100725 0.510274 4.778369 0
M  V30 37 H 4.397883 -1.281109 4.072057 0
M  V30 38 H 4.919290 -2.988212 2.486805 0
M  V30 39 H 1.188780 -0.068624 1.744399 0
M  V30 40 H -0.900026 0.134649 0.966662 0
M  V30 41 H 0.301384 1.149779 0.112933 0
M  V30 42 H -0.934282 1.204392 -1.896335 0
M  V30 43 H -1.820992 1.750701 -0.466846 0
M  V30 44 H -2.762809 -0.947830 0.596642 0
M  V30 45 H -3.809359 0.524293 0.273845 0
M  V30 46 H -4.007639 -2.264528 -0.982415 0
M  V30 47 H -5.159069 -1.440794 0.199712 0
M  V30 48 H -4.751721 -0.357271 -3.718263 0
M  V30 49 H -3.638861 -1.519639 -2.878336 0
M  V30 50 H -2.749280 0.941113 -3.144694 0
M  V30 51 H -3.896253 1.350433 -1.849075 0
M  V30 52 H -0.030752 -2.410112 -2.624078 0
M  V30 53 H 0.317041 -4.079915 -4.234822 0
M  V30 54 H 2.151902 -5.636493 -4.005813 0
M  V30 55 H 3.622687 -5.454916 -2.107582 0
M  V30 END ATOM
M  V30 BEGIN BOND
M  V30 1 1 1 2
M  V30 2 1 2 3
M  V30 3 1 3 4
M  V30 4 2 4 5
M  V30 5 1 4 6
M  V30 6 1 6 7
M  V30 7 2 7 8
M  V30 8 1 8 9
M  V30 9 2 9 10
M  V30 10 1 10 11
M  V30 11 2 11 12
M  V30 12 1 11 13
M  V30 13 1 13 14
M  V30 14 2 14 15
M  V30 15 1 14 16
M  V30 16 1 16 17
M  V30 17 1 17 18
M  V30 18 1 18 19
M  V30 19 1 19 20
M  V30 20 1 20 21
M  V30 21 1 21 22
M  V30 22 1 22 23
M  V30 23 1 13 24
M  V30 24 2 24 25
M  V30 25 1 25 26
M  V30 26 2 26 27
M  V30 27 1 27 28
M  V30 28 2 28 29
M  V30 29 1 29 30
M  V30 30 1 12 7
M  V30 31 1 23 18
M  V30 32 1 29 24
M  V30 33 1 30 10
M  V30 34 1 1 31
M  V30 35 1 1 32
M  V30 36 1 1 33
M  V30 37 1 2 34
M  V30 38 1 2 35
M  V30 39 1 6 36
M  V30 40 1 8 37
M  V30 41 1 9 38
M  V30 42 1 12 39
M  V30 43 1 16 40
M  V30 44 1 16 41
M  V30 45 1 17 42
M  V30 46 1 17 43
M  V30 47 1 19 44
M  V30 48 1 19 45
M  V30 49 1 20 46
M  V30 50 1 20 47
M  V30 51 1 22 48
M  V30 52 1 22 49
M  V30 53 1 23 50
M  V30 54 1 23 51
M  V30 55 1 25 52
M  V30 56 1 26 53
M  V30 57 1 27 54
M  V30 58 1 28 55
M  V30 END BOND
M  V30 END CTAB
M  END
>  <Dataset>  (637) 
OralDrugs

>  <Ligand_Instance>  (637) 
nan

>  <PDB_ID>  (637) 
nan

>  <Standardized_SMILES>  (637) 
CCOC(=O)Nc1ccc2c(c1)N(C(=O)CCN1CCOCC1)c1ccccc1S2

>  <Name>  (637) 
Moricizine

>  <Pocket>  (637) 
nan

>  <ATP_Site>  (637) 
nan

>  <Peripheral>  (637) 
nan

>  <Num_H_Atoms_ProtBoundConf>  (637) 
nan

>  <Num_Resolved_Atoms>  (637) 
nan

>  <Num_Not_Resolved_Atoms>  (637) 
nan

$$$$
CHEMBL70
     RDKit          3D

  0  0  0  0  0  0  0  0  0  0999 V3000
M  V30 BEGIN CTAB
M  V30 COUNTS 40 44 0 0 0
M  V30 BEGIN ATOM
M  V30 1 C -0.264751 2.235753 2.002551 0
M  V30 2 N 0.107870 0.877263 1.646616 0
M  V30 3 C 1.300169 0.970633 0.844344 0
M  V30 4 C 1.513371 -0.185050 -0.100802 0
M  V30 5 C 0.323626 -0.479826 -0.957617 0 CFG=2
M  V30 6 C -0.136952 -1.853385 -0.675618 0
M  V30 7 C -0.886476 -2.143720 0.410084 0
M  V30 8 C -1.253341 -3.462851 0.562110 0
M  V30 9 C -0.846980 -4.413045 -0.383535 0
M  V30 10 C -0.069165 -4.032112 -1.484594 0
M  V30 11 O 0.363481 -4.929148 -2.454488 0
M  V30 12 C 0.309265 -2.714481 -1.655316 0
M  V30 13 O 1.037460 -1.932788 -2.549265 0
M  V30 14 C 0.628174 -0.560658 -2.406946 0 CFG=1
M  V30 15 C -0.530844 -0.344523 -3.313432 0 CFG=1
M  V30 16 O -0.800626 -1.482431 -4.107963 0
M  V30 17 C -1.795199 0.024379 -2.628281 0
M  V30 18 C -1.968228 0.400009 -1.361696 0
M  V30 19 C -0.760223 0.455503 -0.544775 0 CFG=1
M  V30 20 C -1.004427 0.281099 0.932838 0 CFG=1
M  V30 21 C -1.286053 -1.115531 1.368857 0
M  V30 22 H -1.114674 2.192696 2.713636 0
M  V30 23 H -0.662774 2.703563 1.063980 0
M  V30 24 H 0.582188 2.829736 2.386692 0
M  V30 25 H 1.399133 1.949239 0.328026 0
M  V30 26 H 2.164961 0.943081 1.553169 0
M  V30 27 H 1.880331 -1.063530 0.470500 0
M  V30 28 H 2.359803 0.127887 -0.761987 0
M  V30 29 H -1.862118 -3.796912 1.412261 0
M  V30 30 H -1.116009 -5.474109 -0.302234 0
M  V30 31 H 0.173118 -4.864534 -3.430947 0
M  V30 32 H 1.514901 0.047527 -2.689370 0
M  V30 33 H -0.296795 0.470199 -4.031243 0
M  V30 34 H -1.467859 -1.221146 -4.796515 0
M  V30 35 H -2.688329 -0.028333 -3.274421 0
M  V30 36 H -2.940234 0.643239 -0.980565 0
M  V30 37 H -0.339650 1.488581 -0.655660 0
M  V30 38 H -1.943936 0.862866 1.131610 0
M  V30 39 H -2.349881 -1.292406 1.657614 0
M  V30 40 H -0.704387 -1.292841 2.320367 0
M  V30 END ATOM
M  V30 BEGIN BOND
M  V30 1 1 1 2
M  V30 2 1 2 3
M  V30 3 1 3 4
M  V30 4 1 5 4 CFG=1
M  V30 5 1 5 6
M  V30 6 2 6 7
M  V30 7 1 7 8
M  V30 8 2 8 9
M  V30 9 1 9 10
M  V30 10 1 10 11
M  V30 11 2 10 12
M  V30 12 1 12 13
M  V30 13 1 13 14
M  V30 14 1 14 15
M  V30 15 1 15 16
M  V30 16 1 15 17
M  V30 17 2 17 18
M  V30 18 1 18 19
M  V30 19 1 19 20
M  V30 20 1 20 21
M  V30 21 1 20 2
M  V30 22 1 14 5
M  V30 23 1 19 5
M  V30 24 1 12 6
M  V30 25 1 21 7
M  V30 26 1 1 22
M  V30 27 1 1 23
M  V30 28 1 1 24
M  V30 29 1 3 25
M  V30 30 1 3 26
M  V30 31 1 4 27
M  V30 32 1 4 28
M  V30 33 1 8 29
M  V30 34 1 9 30
M  V30 35 1 11 31
M  V30 36 1 14 32 CFG=3
M  V30 37 1 15 33 CFG=3
M  V30 38 1 16 34
M  V30 39 1 17 35
M  V30 40 1 18 36
M  V30 41 1 19 37 CFG=1
M  V30 42 1 20 38 CFG=1
M  V30 43 1 21 39
M  V30 44 1 21 40
M  V30 END BOND
M  V30 END CTAB
M  END
>  <Dataset>  (638) 
OralDrugs

>  <Ligand_Instance>  (638) 
nan

>  <PDB_ID>  (638) 
nan

>  <Standardized_SMILES>  (638) 
CN1CC[C@]23c4c5ccc(O)c4O[C@H]2[C@@H](O)C=C[C@H]3[C@H]1C5

>  <Name>  (638) 
Morphine

>  <Pocket>  (638) 
nan

>  <ATP_Site>  (638) 
nan

>  <Peripheral>  (638) 
nan

>  <Num_H_Atoms_ProtBoundConf>  (638) 
nan

>  <Num_Resolved_Atoms>  (638) 
nan

>  <Num_Not_Resolved_Atoms>  (638) 
nan

$$$$
CHEMBL2104415
     RDKit          3D

  0  0  0  0  0  0  0  0  0  0999 V3000
M  V30 BEGIN CTAB
M  V30 COUNTS 99 103 0 0 0
M  V30 BEGIN ATOM
M  V30 1 C 3.086625 -4.626618 1.004270 0
M  V30 2 O 2.355540 -3.968988 -0.006772 0
M  V30 3 N 1.199828 -4.491824 -0.531130 0
M  V30 4 C 0.284216 -3.718325 -1.061250 0
M  V30 5 C 0.537263 -2.235392 -1.077764 0
M  V30 6 C -0.758816 -1.527689 -1.384525 0 CFG=1
M  V30 7 C -1.653586 -1.429592 -0.180226 0
M  V30 8 C -1.413487 -0.160722 0.600585 0 CFG=2
M  V30 9 C -1.720134 1.008958 -0.299217 0
M  V30 10 C -1.463058 0.624803 -1.712839 0 CFG=1
M  V30 11 C -1.324124 1.739213 -2.680100 0
M  V30 12 C -0.262360 2.718078 -2.406644 0
M  V30 13 C -0.086583 4.044807 -2.152667 0
M  V30 14 C -1.325572 4.849686 -2.122062 0
M  V30 15 C 1.314320 4.503168 -1.958091 0
M  V30 16 C 1.560028 5.064344 -0.560746 0 CFG=1
M  V30 17 C 0.787442 6.310858 -0.256410 0
M  V30 18 C 1.161243 3.984083 0.425123 0
M  V30 19 C 1.938944 3.358249 1.257942 0
M  V30 20 C 1.758065 2.326898 2.245643 0
M  V30 21 C 2.514457 1.708837 3.066778 0
M  V30 22 C 3.964998 1.726972 3.437572 0
M  V30 23 O 3.967956 1.289249 4.772219 0
M  V30 24 C 3.039836 0.270780 4.846648 0 CFG=2
M  V30 25 C 3.690746 -1.053685 4.595595 0 CFG=2
M  V30 26 O 4.335279 -1.108932 3.367915 0
M  V30 27 C 2.653409 -2.114579 4.614572 0
M  V30 28 C 2.705978 -3.373283 5.382156 0
M  V30 29 C 1.619230 -1.846087 3.855350 0
M  V30 30 C 1.553762 -0.571716 3.069759 0 CFG=1
M  V30 31 C 0.243193 -0.454420 2.395068 0
M  V30 32 O -0.704993 -0.602540 3.216162 0
M  V30 33 O -0.088947 -0.221980 1.061218 0
M  V30 34 C 1.925717 0.625987 3.924481 0 CFG=2
M  V30 35 O 0.840558 1.190580 4.561638 0
M  V30 36 O -0.354963 -0.220245 -1.804255 0
M  V30 37 O -1.400102 -2.030711 -2.492764 0
M  V30 38 C -1.465227 -3.364988 -2.691521 0 CFG=2
M  V30 39 C -2.810642 -3.757066 -3.270835 0
M  V30 40 C -3.238574 -4.943072 -3.998686 0
M  V30 41 C -3.853949 -2.942098 -3.155076 0
M  V30 42 C -5.260907 -2.757094 -3.459003 0
M  V30 43 C -6.017236 -3.836230 -4.134809 0
M  V30 44 C -5.442141 -1.496353 -4.332436 0
M  V30 45 C -0.979959 -4.280257 -1.636575 0 CFG=1
M  V30 46 C -0.583357 -5.650874 -2.165252 0
M  V30 47 H 2.612771 -4.451383 2.012745 0
M  V30 48 H 4.106498 -4.182003 0.992832 0
M  V30 49 H 3.137823 -5.729370 0.788696 0
M  V30 50 H 0.928511 -1.881064 -0.127809 0
M  V30 51 H 1.311022 -2.041970 -1.852372 0
M  V30 52 H -2.730591 -1.403412 -0.472569 0
M  V30 53 H -1.467741 -2.254313 0.549337 0
M  V30 54 H -2.131874 -0.172871 1.481049 0
M  V30 55 H -1.137212 1.901420 -0.073092 0
M  V30 56 H -2.784414 1.282571 -0.109478 0
M  V30 57 H -2.352701 -0.004976 -2.028388 0
M  V30 58 H -2.282482 2.314941 -2.809760 0
M  V30 59 H -1.143322 1.272711 -3.690186 0
M  V30 60 H 0.638608 2.069140 -2.429231 0
M  V30 61 H -1.686998 5.125712 -1.129346 0
M  V30 62 H -1.238632 5.786099 -2.749954 0
M  V30 63 H -2.181808 4.315546 -2.612294 0
M  V30 64 H 2.037779 3.701781 -2.131394 0
M  V30 65 H 1.582111 5.322214 -2.681399 0
M  V30 66 H 2.626444 5.228376 -0.434975 0
M  V30 67 H 1.500188 7.089379 0.106278 0
M  V30 68 H 0.116185 6.130450 0.614560 0
M  V30 69 H 0.153305 6.662439 -1.069965 0
M  V30 70 H 0.090205 3.908920 0.227491 0
M  V30 71 H 2.984789 3.560764 1.327683 0
M  V30 72 H 0.710334 2.148583 2.150393 0
M  V30 73 H 4.375018 2.744249 3.454157 0
M  V30 74 H 4.599773 1.130406 2.772372 0
M  V30 75 H 2.639294 0.252263 5.884903 0
M  V30 76 H 4.390821 -1.235830 5.439960 0
M  V30 77 H 5.092604 -1.720053 3.403385 0
M  V30 78 H 3.203076 -4.169796 4.764537 0
M  V30 79 H 1.702105 -3.755114 5.622849 0
M  V30 80 H 3.335870 -3.285729 6.300374 0
M  V30 81 H 0.779402 -2.552304 3.780509 0
M  V30 82 H 2.355510 -0.601371 2.272277 0
M  V30 83 H 1.108754 1.404247 5.476862 0
M  V30 84 H -0.779307 -3.559723 -3.578200 0
M  V30 85 H -4.148483 -5.367188 -3.548824 0
M  V30 86 H -3.367080 -4.742406 -5.104567 0
M  V30 87 H -2.500743 -5.771355 -3.993948 0
M  V30 88 H -3.598998 -1.995762 -2.616870 0
M  V30 89 H -5.867401 -2.483255 -2.530397 0
M  V30 90 H -7.031868 -3.409753 -4.459582 0
M  V30 91 H -6.347395 -4.592115 -3.361567 0
M  V30 92 H -5.619416 -4.255186 -5.048709 0
M  V30 93 H -4.606011 -0.817624 -4.066109 0
M  V30 94 H -6.390001 -0.993033 -4.134982 0
M  V30 95 H -5.318172 -1.794039 -5.395692 0
M  V30 96 H -1.651207 -4.380170 -0.760997 0
M  V30 97 H -1.439614 -6.338443 -1.955879 0
M  V30 98 H 0.282849 -6.055938 -1.555189 0
M  V30 99 H -0.259150 -5.628808 -3.209421 0
M  V30 END ATOM
M  V30 BEGIN BOND
M  V30 1 1 1 2
M  V30 2 1 2 3
M  V30 3 2 3 4
M  V30 4 1 4 5
M  V30 5 1 5 6
M  V30 6 1 6 7
M  V30 7 1 7 8
M  V30 8 1 8 9
M  V30 9 1 9 10
M  V30 10 1 10 11
M  V30 11 1 11 12
M  V30 12 2 12 13
M  V30 13 1 13 14
M  V30 14 1 13 15
M  V30 15 1 15 16
M  V30 16 1 16 17
M  V30 17 1 16 18
M  V30 18 2 18 19
M  V30 19 1 19 20
M  V30 20 2 20 21
M  V30 21 1 21 22
M  V30 22 1 22 23
M  V30 23 1 23 24
M  V30 24 1 24 25
M  V30 25 1 25 26
M  V30 26 1 25 27
M  V30 27 1 27 28
M  V30 28 2 27 29
M  V30 29 1 29 30
M  V30 30 1 30 31
M  V30 31 2 31 32
M  V30 32 1 31 33
M  V30 33 1 30 34
M  V30 34 1 34 35 CFG=1
M  V30 35 1 10 36
M  V30 36 1 6 37 CFG=3
M  V30 37 1 37 38
M  V30 38 1 38 39
M  V30 39 1 39 40
M  V30 40 2 39 41
M  V30 41 1 41 42
M  V30 42 1 42 43
M  V30 43 1 42 44
M  V30 44 1 38 45
M  V30 45 1 45 46
M  V30 46 1 45 4
M  V30 47 1 36 6
M  V30 48 1 33 8
M  V30 49 1 34 21
M  V30 50 1 34 24
M  V30 51 1 1 47
M  V30 52 1 1 48
M  V30 53 1 1 49
M  V30 54 1 5 50
M  V30 55 1 5 51
M  V30 56 1 7 52
M  V30 57 1 7 53
M  V30 58 1 8 54 CFG=1
M  V30 59 1 9 55
M  V30 60 1 9 56
M  V30 61 1 10 57 CFG=3
M  V30 62 1 11 58
M  V30 63 1 11 59
M  V30 64 1 12 60
M  V30 65 1 14 61
M  V30 66 1 14 62
M  V30 67 1 14 63
M  V30 68 1 15 64
M  V30 69 1 15 65
M  V30 70 1 16 66 CFG=3
M  V30 71 1 17 67
M  V30 72 1 17 68
M  V30 73 1 17 69
M  V30 74 1 18 70
M  V30 75 1 19 71
M  V30 76 1 20 72
M  V30 77 1 22 73
M  V30 78 1 22 74
M  V30 79 1 24 75 CFG=1
M  V30 80 1 25 76 CFG=1
M  V30 81 1 26 77
M  V30 82 1 28 78
M  V30 83 1 28 79
M  V30 84 1 28 80
M  V30 85 1 29 81
M  V30 86 1 30 82 CFG=3
M  V30 87 1 35 83
M  V30 88 1 38 84 CFG=3
M  V30 89 1 40 85
M  V30 90 1 40 86
M  V30 91 1 40 87
M  V30 92 1 41 88
M  V30 93 1 42 89
M  V30 94 1 43 90
M  V30 95 1 43 91
M  V30 96 1 43 92
M  V30 97 1 44 93
M  V30 98 1 44 94
M  V30 99 1 44 95
M  V30 100 1 45 96 CFG=1
M  V30 101 1 46 97
M  V30 102 1 46 98
M  V30 103 1 46 99
M  V30 END BOND
M  V30 END CTAB
M  END
>  <Dataset>  (639) 
OralDrugs

>  <Ligand_Instance>  (639) 
nan

>  <PDB_ID>  (639) 
nan

>  <Standardized_SMILES>  (639) 
CO/N=C1\C[C@]2(C[C@@H]3C[C@@H](C/C=C(\C)C[C@@H](C)/C=C/C=C4\CO[C@@H]5[C@H](O)C(C)=C[C@@H](C(=O)O3)[C@]45O)O2)O[C@H](/C(C)=C/C(C)C)[C@H]1C

>  <Name>  (639) 
Moxidectin

>  <Pocket>  (639) 
nan

>  <ATP_Site>  (639) 
nan

>  <Peripheral>  (639) 
nan

>  <Num_H_Atoms_ProtBoundConf>  (639) 
nan

>  <Num_Resolved_Atoms>  (639) 
nan

>  <Num_Not_Resolved_Atoms>  (639) 
nan

$$$$
CHEMBL32
     RDKit          3D

  0  0  0  0  0  0  0  0  0  0999 V3000
M  V30 BEGIN CTAB
M  V30 COUNTS 53 57 0 0 0
M  V30 BEGIN ATOM
M  V30 1 C 0.064548 -2.526205 1.734728 0
M  V30 2 O -0.193098 -1.778949 0.560748 0
M  V30 3 C -0.985331 -0.667919 0.652093 0
M  V30 4 C -0.273050 0.494321 0.948077 0
M  V30 5 N 1.147599 0.623734 1.154937 0
M  V30 6 C 2.054605 0.546971 2.280711 0
M  V30 7 C 3.210089 -0.234679 1.719979 0 CFG=2
M  V30 8 C 4.549142 0.380164 2.064049 0
M  V30 9 C 5.623744 -0.438847 1.389123 0
M  V30 10 C 5.326002 -0.681013 -0.081264 0
M  V30 11 N 4.274080 0.254882 -0.433598 0
M  V30 12 C 3.060080 -0.216022 0.211556 0 CFG=2
M  V30 13 C 2.035561 0.904479 0.038140 0
M  V30 14 C -0.939473 1.706007 1.073982 0
M  V30 15 F -0.336109 2.885100 1.358865 0
M  V30 16 C -2.323057 1.805657 0.911992 0
M  V30 17 C -3.012778 0.647284 0.619231 0
M  V30 18 C -4.377368 0.703697 0.448340 0
M  V30 19 O -4.998748 1.780953 0.556997 0
M  V30 20 C -5.067504 -0.453054 0.151730 0
M  V30 21 C -6.511397 -0.497192 -0.047367 0
M  V30 22 O -7.198309 -1.511997 -0.318377 0
M  V30 23 O -7.248929 0.661082 0.060405 0
M  V30 24 C -4.321938 -1.596466 0.047659 0
M  V30 25 N -2.969956 -1.710702 0.206698 0
M  V30 26 C -2.344737 -3.005732 0.052641 0
M  V30 27 C -1.595335 -3.450736 -1.110480 0
M  V30 28 C -3.040291 -3.778153 -1.117052 0
M  V30 29 C -2.348890 -0.553474 0.494768 0
M  V30 30 H 1.037836 -2.247446 2.187714 0
M  V30 31 H -0.784629 -2.391749 2.414473 0
M  V30 32 H 0.108939 -3.615966 1.472648 0
M  V30 33 H 1.608824 0.139246 3.184721 0
M  V30 34 H 2.419557 1.592926 2.458622 0
M  V30 35 H 3.227754 -1.267418 2.120945 0
M  V30 36 H 4.713916 0.294019 3.147581 0
M  V30 37 H 4.660710 1.422727 1.770266 0
M  V30 38 H 5.806920 -1.419085 1.880610 0
M  V30 39 H 6.569445 0.137201 1.431405 0
M  V30 40 H 4.955181 -1.718100 -0.216660 0
M  V30 41 H 6.197825 -0.502185 -0.733986 0
M  V30 42 H 4.093802 0.228005 -1.463463 0
M  V30 43 H 2.720766 -1.173957 -0.194921 0
M  V30 44 H 2.606246 1.853783 0.206490 0
M  V30 45 H 1.559125 0.872719 -0.940786 0
M  V30 46 H -2.859172 2.731613 1.004954 0
M  V30 47 H -8.017244 0.895945 -0.581076 0
M  V30 48 H -4.868259 -2.518314 -0.188433 0
M  V30 49 H -2.471401 -3.613180 0.998091 0
M  V30 50 H -1.192732 -2.706470 -1.805700 0
M  V30 51 H -0.840400 -4.256984 -0.899072 0
M  V30 52 H -3.299325 -4.824407 -0.973289 0
M  V30 53 H -3.626768 -3.220099 -1.842842 0
M  V30 END ATOM
M  V30 BEGIN BOND
M  V30 1 1 1 2
M  V30 2 1 2 3
M  V30 3 2 3 4
M  V30 4 1 4 5
M  V30 5 1 5 6
M  V30 6 1 6 7
M  V30 7 1 7 8
M  V30 8 1 8 9
M  V30 9 1 9 10
M  V30 10 1 10 11
M  V30 11 1 11 12
M  V30 12 1 12 13
M  V30 13 1 4 14
M  V30 14 1 14 15
M  V30 15 2 14 16
M  V30 16 1 16 17
M  V30 17 1 17 18
M  V30 18 2 18 19
M  V30 19 1 18 20
M  V30 20 1 20 21
M  V30 21 2 21 22
M  V30 22 1 21 23
M  V30 23 2 20 24
M  V30 24 1 24 25
M  V30 25 1 25 26
M  V30 26 1 26 27
M  V30 27 1 27 28
M  V30 28 1 25 29
M  V30 29 1 29 3
M  V30 30 1 13 5
M  V30 31 2 29 17
M  V30 32 1 12 7
M  V30 33 1 28 26
M  V30 34 1 1 30
M  V30 35 1 1 31
M  V30 36 1 1 32
M  V30 37 1 6 33
M  V30 38 1 6 34
M  V30 39 1 7 35 CFG=1
M  V30 40 1 8 36
M  V30 41 1 8 37
M  V30 42 1 9 38
M  V30 43 1 9 39
M  V30 44 1 10 40
M  V30 45 1 10 41
M  V30 46 1 11 42
M  V30 47 1 12 43 CFG=3
M  V30 48 1 13 44
M  V30 49 1 13 45
M  V30 50 1 16 46
M  V30 51 1 23 47
M  V30 52 1 24 48
M  V30 53 1 26 49
M  V30 54 1 27 50
M  V30 55 1 27 51
M  V30 56 1 28 52
M  V30 57 1 28 53
M  V30 END BOND
M  V30 END CTAB
M  END
>  <Dataset>  (640) 
OralDrugs

>  <Ligand_Instance>  (640) 
nan

>  <PDB_ID>  (640) 
nan

>  <Standardized_SMILES>  (640) 
COc1c(N2C[C@@H]3CCCN[C@@H]3C2)c(F)cc2c(=O)c(C(=O)O)cn(C3CC3)c12

>  <Name>  (640) 
Moxifloxacin

>  <Pocket>  (640) 
nan

>  <ATP_Site>  (640) 
nan

>  <Peripheral>  (640) 
nan

>  <Num_H_Atoms_ProtBoundConf>  (640) 
nan

>  <Num_Resolved_Atoms>  (640) 
nan

>  <Num_Not_Resolved_Atoms>  (640) 
nan

$$$$
CHEMBL159226
     RDKit          3D

  0  0  0  0  0  0  0  0  0  0999 V3000
M  V30 BEGIN CTAB
M  V30 COUNTS 45 45 0 0 0
M  V30 BEGIN ATOM
M  V30 1 C -3.735515 -4.556589 2.794854 0
M  V30 2 C -3.649294 -3.460229 1.796882 0
M  V30 3 O -4.543968 -3.147333 0.941084 0
M  V30 4 O -2.776707 -2.591995 1.503533 0
M  V30 5 C -1.935804 -1.685442 1.153939 0
M  V30 6 C -1.107784 -2.036781 0.077937 0
M  V30 7 C -0.138103 -1.149477 -0.417765 0
M  V30 8 C 0.718924 -1.554555 -1.553865 0
M  V30 9 C 1.968729 -2.261684 -1.214931 0
M  V30 10 C -0.099299 -2.435966 -2.474974 0
M  V30 11 C -0.042191 0.100851 0.217806 0
M  V30 12 O 0.911725 0.881411 -0.326229 0
M  V30 13 C 1.389406 2.133344 -0.081882 0
M  V30 14 C 2.005056 2.454751 1.216573 0
M  V30 15 N 3.169019 1.660110 1.546966 0
M  V30 16 C 4.240221 2.033884 0.616270 0
M  V30 17 C 3.610317 2.098546 2.859578 0
M  V30 18 C -0.871912 0.411839 1.271717 0
M  V30 19 C -1.823820 -0.453697 1.761484 0
M  V30 20 C -2.697424 -0.074180 2.900953 0
M  V30 21 H -2.804458 -5.188091 2.780200 0
M  V30 22 H -4.620833 -5.188130 2.620657 0
M  V30 23 H -3.793674 -4.185347 3.841572 0
M  V30 24 H -1.174074 -3.015585 -0.429519 0
M  V30 25 H 0.926033 -0.620017 -2.145705 0
M  V30 26 H 1.898443 -3.366089 -1.421213 0
M  V30 27 H 2.761913 -1.911912 -1.919960 0
M  V30 28 H 2.351927 -2.128689 -0.202438 0
M  V30 29 H -1.161840 -2.104570 -2.549076 0
M  V30 30 H -0.134895 -3.498989 -2.118154 0
M  V30 31 H 0.317638 -2.457942 -3.502381 0
M  V30 32 H 0.531320 2.859967 -0.223712 0
M  V30 33 H 2.104004 2.396002 -0.909581 0
M  V30 34 H 1.293280 2.439680 2.046569 0
M  V30 35 H 2.400905 3.512718 1.145642 0
M  V30 36 H 4.380545 1.255524 -0.157590 0
M  V30 37 H 5.199169 2.070289 1.168999 0
M  V30 38 H 4.068278 3.035428 0.187511 0
M  V30 39 H 3.476536 1.333795 3.640042 0
M  V30 40 H 3.124564 3.049207 3.171387 0
M  V30 41 H 4.713108 2.334323 2.877119 0
M  V30 42 H -0.785521 1.378067 1.741830 0
M  V30 43 H -2.121008 0.111302 3.824804 0
M  V30 44 H -3.175935 0.915317 2.640386 0
M  V30 45 H -3.538170 -0.766072 3.022825 0
M  V30 END ATOM
M  V30 BEGIN BOND
M  V30 1 1 1 2
M  V30 2 2 2 3
M  V30 3 1 2 4
M  V30 4 1 4 5
M  V30 5 2 5 6
M  V30 6 1 6 7
M  V30 7 1 7 8
M  V30 8 1 8 9
M  V30 9 1 8 10
M  V30 10 2 7 11
M  V30 11 1 11 12
M  V30 12 1 12 13
M  V30 13 1 13 14
M  V30 14 1 14 15
M  V30 15 1 15 16
M  V30 16 1 15 17
M  V30 17 1 11 18
M  V30 18 2 18 19
M  V30 19 1 19 20
M  V30 20 1 19 5
M  V30 21 1 1 21
M  V30 22 1 1 22
M  V30 23 1 1 23
M  V30 24 1 6 24
M  V30 25 1 8 25
M  V30 26 1 9 26
M  V30 27 1 9 27
M  V30 28 1 9 28
M  V30 29 1 10 29
M  V30 30 1 10 30
M  V30 31 1 10 31
M  V30 32 1 13 32
M  V30 33 1 13 33
M  V30 34 1 14 34
M  V30 35 1 14 35
M  V30 36 1 16 36
M  V30 37 1 16 37
M  V30 38 1 16 38
M  V30 39 1 17 39
M  V30 40 1 17 40
M  V30 41 1 17 41
M  V30 42 1 18 42
M  V30 43 1 20 43
M  V30 44 1 20 44
M  V30 45 1 20 45
M  V30 END BOND
M  V30 END CTAB
M  END
>  <Dataset>  (641) 
OralDrugs

>  <Ligand_Instance>  (641) 
nan

>  <PDB_ID>  (641) 
nan

>  <Standardized_SMILES>  (641) 
CC(=O)Oc1cc(C(C)C)c(OCCN(C)C)cc1C

>  <Name>  (641) 
Moxisylyte

>  <Pocket>  (641) 
nan

>  <ATP_Site>  (641) 
nan

>  <Peripheral>  (641) 
nan

>  <Num_H_Atoms_ProtBoundConf>  (641) 
nan

>  <Num_Resolved_Atoms>  (641) 
nan

>  <Num_Not_Resolved_Atoms>  (641) 
nan

$$$$
CHEMBL19236
     RDKit          3D

  0  0  0  0  0  0  0  0  0  0999 V3000
M  V30 BEGIN CTAB
M  V30 COUNTS 28 29 0 0 0
M  V30 BEGIN ATOM
M  V30 1 C 0.284233 -3.600414 2.054592 0
M  V30 2 O 0.459944 -2.579423 1.093020 0
M  V30 3 C 1.167407 -1.446664 1.472139 0
M  V30 4 N 1.700025 -1.253249 2.698734 0
M  V30 5 C 2.381727 -0.111147 2.991827 0
M  V30 6 C 2.943290 0.037901 4.363421 0
M  V30 7 N 2.564690 0.872163 2.104496 0
M  V30 8 C 2.060238 0.750946 0.854315 0
M  V30 9 Cl 2.235488 1.968035 -0.388459 0
M  V30 10 C 1.362034 -0.426077 0.564505 0
M  V30 11 N 0.821410 -0.563889 -0.763987 0
M  V30 12 C -0.492992 -0.113039 -1.089949 0
M  V30 13 N -1.125240 0.806090 -0.419349 0
M  V30 14 C -2.435448 1.018185 -1.023884 0
M  V30 15 C -2.681911 -0.205217 -1.885283 0
M  V30 16 N -1.295468 -0.595213 -2.181361 0
M  V30 17 H 1.250561 -4.028031 2.380077 0
M  V30 18 H -0.246272 -3.267853 2.970066 0
M  V30 19 H -0.345928 -4.426237 1.641230 0
M  V30 20 H 3.372140 -0.949368 4.627872 0
M  V30 21 H 3.690968 0.855059 4.393804 0
M  V30 22 H 2.073469 0.209606 5.037434 0
M  V30 23 H 1.381684 -1.002873 -1.536954 0
M  V30 24 H -2.450635 1.919766 -1.637479 0
M  V30 25 H -3.171079 1.031135 -0.192846 0
M  V30 26 H -3.273880 -0.012777 -2.778630 0
M  V30 27 H -3.112362 -1.027897 -1.252990 0
M  V30 28 H -0.912490 -1.112505 -2.993752 0
M  V30 END ATOM
M  V30 BEGIN BOND
M  V30 1 1 1 2
M  V30 2 1 2 3
M  V30 3 2 3 4
M  V30 4 1 4 5
M  V30 5 1 5 6
M  V30 6 2 5 7
M  V30 7 1 7 8
M  V30 8 1 8 9
M  V30 9 2 8 10
M  V30 10 1 10 11
M  V30 11 1 11 12
M  V30 12 2 12 13
M  V30 13 1 13 14
M  V30 14 1 14 15
M  V30 15 1 15 16
M  V30 16 1 10 3
M  V30 17 1 16 12
M  V30 18 1 1 17
M  V30 19 1 1 18
M  V30 20 1 1 19
M  V30 21 1 6 20
M  V30 22 1 6 21
M  V30 23 1 6 22
M  V30 24 1 11 23
M  V30 25 1 14 24
M  V30 26 1 14 25
M  V30 27 1 15 26
M  V30 28 1 15 27
M  V30 29 1 16 28
M  V30 END BOND
M  V30 END CTAB
M  END
>  <Dataset>  (642) 
OralDrugs

>  <Ligand_Instance>  (642) 
nan

>  <PDB_ID>  (642) 
nan

>  <Standardized_SMILES>  (642) 
COc1nc(C)nc(Cl)c1NC1=NCCN1

>  <Name>  (642) 
Moxonidine

>  <Pocket>  (642) 
nan

>  <ATP_Site>  (642) 
nan

>  <Peripheral>  (642) 
nan

>  <Num_H_Atoms_ProtBoundConf>  (642) 
nan

>  <Num_Resolved_Atoms>  (642) 
nan

>  <Num_Not_Resolved_Atoms>  (642) 
nan

$$$$
CHEMBL420762
     RDKit          3D

  0  0  0  0  0  0  0  0  0  0999 V3000
M  V30 BEGIN CTAB
M  V30 COUNTS 61 64 0 0 0
M  V30 BEGIN ATOM
M  V30 1 C 3.243604 -1.878105 3.227630 0
M  V30 2 C 4.548175 -1.207333 2.968676 0
M  V30 3 C 5.727527 -1.727355 3.489870 0
M  V30 4 C 6.973844 -1.182378 3.307151 0
M  V30 5 C 7.068311 -0.028073 2.547442 0
M  V30 6 C 5.938458 0.551842 1.992856 0
M  V30 7 C 4.726729 -0.058087 2.224169 0
M  V30 8 C 3.547169 0.560871 1.634734 0
M  V30 9 O 2.414024 0.207724 2.133914 0
M  V30 10 N 3.329014 1.493210 0.603150 0
M  V30 11 C 1.883151 1.615622 0.585773 0
M  V30 12 C 1.229342 2.534217 1.372415 0
M  V30 13 C -0.150916 2.548891 1.283096 0
M  V30 14 C -0.808015 1.680983 0.443725 0
M  V30 15 C -2.234594 1.524292 0.237372 0
M  V30 16 O -2.706999 2.685574 0.088809 0
M  V30 17 N -3.108377 0.406878 0.174223 0
M  V30 18 C -4.495791 0.695352 -0.223986 0
M  V30 19 C -5.153600 -0.652837 -0.479855 0
M  V30 20 C -4.674705 -1.343017 -1.710917 0
M  V30 21 C -3.616280 -2.386916 -1.414322 0
M  V30 22 N -2.886983 -2.791824 -2.547328 0
M  V30 23 C -3.544994 -3.370598 -3.640212 0
M  V30 24 C -1.477359 -2.806538 -2.514052 0
M  V30 25 C -2.759456 -2.043707 -0.256415 0
M  V30 26 C -2.065104 -3.148015 0.199683 0
M  V30 27 C -1.205347 -3.076457 1.284389 0
M  V30 28 C -1.005093 -1.891044 1.961115 0
M  V30 29 C -1.661492 -0.742535 1.568150 0
M  V30 30 C -2.509527 -0.872794 0.473789 0
M  V30 31 C -0.081875 0.765608 -0.333821 0
M  V30 32 C 1.313514 0.710660 -0.279083 0
M  V30 33 H 3.476606 -2.887117 3.659732 0
M  V30 34 H 2.681597 -2.098800 2.275541 0
M  V30 35 H 2.564543 -1.305654 3.870347 0
M  V30 36 H 5.658742 -2.640127 4.091703 0
M  V30 37 H 7.839175 -1.667419 3.756968 0
M  V30 38 H 8.063667 0.414091 2.399396 0
M  V30 39 H 5.990417 1.442115 1.404833 0
M  V30 40 H 4.220749 1.815541 0.160750 0
M  V30 41 H 1.752943 3.212753 2.025551 0
M  V30 42 H -0.780719 3.220983 1.845686 0
M  V30 43 H -4.989924 1.127568 0.662583 0
M  V30 44 H -4.500671 1.348045 -1.116021 0
M  V30 45 H -4.838878 -1.287043 0.399086 0
M  V30 46 H -6.240961 -0.548136 -0.374997 0
M  V30 47 H -4.333661 -0.609770 -2.488233 0
M  V30 48 H -5.570655 -1.903557 -2.102804 0
M  V30 49 H -4.190678 -3.304335 -1.057966 0
M  V30 50 H -3.027200 -3.066500 -4.597640 0
M  V30 51 H -4.595124 -3.063336 -3.788827 0
M  V30 52 H -3.437833 -4.481917 -3.634240 0
M  V30 53 H -1.004047 -2.121049 -1.815219 0
M  V30 54 H -1.109417 -3.859620 -2.377634 0
M  V30 55 H -1.065965 -2.532484 -3.532934 0
M  V30 56 H -2.141360 -4.128418 -0.243999 0
M  V30 57 H -0.644223 -3.938585 1.660814 0
M  V30 58 H -0.332179 -1.836354 2.807170 0
M  V30 59 H -1.575262 0.210987 2.051214 0
M  V30 60 H -0.546143 0.055731 -1.022049 0
M  V30 61 H 1.852290 -0.002321 -0.885522 0
M  V30 END ATOM
M  V30 BEGIN BOND
M  V30 1 1 1 2
M  V30 2 2 2 3
M  V30 3 1 3 4
M  V30 4 2 4 5
M  V30 5 1 5 6
M  V30 6 2 6 7
M  V30 7 1 7 8
M  V30 8 2 8 9
M  V30 9 1 8 10
M  V30 10 1 10 11
M  V30 11 2 11 12
M  V30 12 1 12 13
M  V30 13 2 13 14
M  V30 14 1 14 15
M  V30 15 2 15 16
M  V30 16 1 15 17
M  V30 17 1 17 18
M  V30 18 1 18 19
M  V30 19 1 19 20
M  V30 20 1 20 21
M  V30 21 1 21 22
M  V30 22 1 22 23
M  V30 23 1 22 24
M  V30 24 1 21 25
M  V30 25 2 25 26
M  V30 26 1 26 27
M  V30 27 2 27 28
M  V30 28 1 28 29
M  V30 29 2 29 30
M  V30 30 1 14 31
M  V30 31 2 31 32
M  V30 32 1 7 2
M  V30 33 1 32 11
M  V30 34 1 30 17
M  V30 35 1 30 25
M  V30 36 1 1 33
M  V30 37 1 1 34
M  V30 38 1 1 35
M  V30 39 1 3 36
M  V30 40 1 4 37
M  V30 41 1 5 38
M  V30 42 1 6 39
M  V30 43 1 10 40
M  V30 44 1 12 41
M  V30 45 1 13 42
M  V30 46 1 18 43
M  V30 47 1 18 44
M  V30 48 1 19 45
M  V30 49 1 19 46
M  V30 50 1 20 47
M  V30 51 1 20 48
M  V30 52 1 21 49
M  V30 53 1 23 50
M  V30 54 1 23 51
M  V30 55 1 23 52
M  V30 56 1 24 53
M  V30 57 1 24 54
M  V30 58 1 24 55
M  V30 59 1 26 56
M  V30 60 1 27 57
M  V30 61 1 28 58
M  V30 62 1 29 59
M  V30 63 1 31 60
M  V30 64 1 32 61
M  V30 END BOND
M  V30 END CTAB
M  END
>  <Dataset>  (643) 
OralDrugs

>  <Ligand_Instance>  (643) 
nan

>  <PDB_ID>  (643) 
nan

>  <Standardized_SMILES>  (643) 
Cc1ccccc1C(=O)Nc1ccc(C(=O)N2CCCC(N(C)C)c3ccccc32)cc1

>  <Name>  (643) 
Mozavaptan

>  <Pocket>  (643) 
nan

>  <ATP_Site>  (643) 
nan

>  <Peripheral>  (643) 
nan

>  <Num_H_Atoms_ProtBoundConf>  (643) 
nan

>  <Num_Resolved_Atoms>  (643) 
nan

>  <Num_Not_Resolved_Atoms>  (643) 
nan

$$$$
CHEMBL2106643
     RDKit          3D

  0  0  0  0  0  0  0  0  0  0999 V3000
M  V30 BEGIN CTAB
M  V30 COUNTS 43 44 0 0 0
M  V30 BEGIN ATOM
M  V30 1 C 2.560174 -2.118076 0.181640 0
M  V30 2 O 1.583994 -1.385704 0.908583 0
M  V30 3 C 0.256828 -1.585136 0.553624 0
M  V30 4 C -0.398847 -2.590276 1.215029 0
M  V30 5 C 0.262669 -3.433574 2.261741 0
M  V30 6 C -1.738514 -2.829092 0.891250 0
M  V30 7 C -2.416037 -2.083732 -0.071862 0
M  V30 8 C -1.700945 -1.070168 -0.716832 0
M  V30 9 O -2.356092 -0.315162 -1.679876 0
M  V30 10 C -0.380022 -0.826737 -0.404989 0
M  V30 11 C 0.356199 0.261850 -1.109795 0
M  V30 12 C 0.457971 1.409011 -0.165692 0
M  V30 13 C 1.589396 1.949798 0.272368 0
M  V30 14 C 2.907464 1.452152 -0.146232 0
M  V30 15 C 1.528976 3.097194 1.218007 0
M  V30 16 C 2.213527 2.790668 2.537810 0
M  V30 17 C 1.538255 1.622268 3.172463 0
M  V30 18 O 0.571193 0.880381 2.852960 0
M  V30 19 O 2.125500 1.284463 4.406385 0
M  V30 20 C -3.792337 -2.612034 -0.143898 0
M  V30 21 O -4.580394 -2.073413 -0.961149 0
M  V30 22 O -3.868436 -3.639054 0.772787 0
M  V30 23 C -2.665662 -3.844350 1.451428 0
M  V30 24 H 2.337196 -2.193838 -0.895748 0
M  V30 25 H 3.573607 -1.704256 0.345037 0
M  V30 26 H 2.587249 -3.189351 0.539380 0
M  V30 27 H 1.017432 -2.758705 2.738934 0
M  V30 28 H 0.853828 -4.254577 1.814872 0
M  V30 29 H -0.424265 -3.799062 3.021783 0
M  V30 30 H -3.154849 -0.681503 -2.182823 0
M  V30 31 H -0.206285 0.578890 -2.032514 0
M  V30 32 H 1.322542 -0.098033 -1.475148 0
M  V30 33 H -0.534006 1.747600 0.119326 0
M  V30 34 H 3.643377 2.308905 -0.112245 0
M  V30 35 H 2.882541 1.188080 -1.237506 0
M  V30 36 H 3.348115 0.680011 0.489140 0
M  V30 37 H 0.488301 3.374790 1.476214 0
M  V30 38 H 1.985542 3.958165 0.728434 0
M  V30 39 H 2.034168 3.647973 3.202145 0
M  V30 40 H 3.291795 2.638413 2.390836 0
M  V30 41 H 1.957127 0.360825 4.833609 0
M  V30 42 H -2.254509 -4.852444 1.278651 0
M  V30 43 H -2.828798 -3.672542 2.550660 0
M  V30 END ATOM
M  V30 BEGIN BOND
M  V30 1 1 1 2
M  V30 2 1 2 3
M  V30 3 2 3 4
M  V30 4 1 4 5
M  V30 5 1 4 6
M  V30 6 2 6 7
M  V30 7 1 7 8
M  V30 8 1 8 9
M  V30 9 2 8 10
M  V30 10 1 10 11
M  V30 11 1 11 12
M  V30 12 2 12 13
M  V30 13 1 13 14
M  V30 14 1 13 15
M  V30 15 1 15 16
M  V30 16 1 16 17
M  V30 17 2 17 18
M  V30 18 1 17 19
M  V30 19 1 7 20
M  V30 20 2 20 21
M  V30 21 1 20 22
M  V30 22 1 22 23
M  V30 23 1 10 3
M  V30 24 1 23 6
M  V30 25 1 1 24
M  V30 26 1 1 25
M  V30 27 1 1 26
M  V30 28 1 5 27
M  V30 29 1 5 28
M  V30 30 1 5 29
M  V30 31 1 9 30
M  V30 32 1 11 31
M  V30 33 1 11 32
M  V30 34 1 12 33
M  V30 35 1 14 34
M  V30 36 1 14 35
M  V30 37 1 14 36
M  V30 38 1 15 37
M  V30 39 1 15 38
M  V30 40 1 16 39
M  V30 41 1 16 40
M  V30 42 1 19 41
M  V30 43 1 23 42
M  V30 44 1 23 43
M  V30 END BOND
M  V30 END CTAB
M  END
>  <Dataset>  (644) 
OralDrugs

>  <Ligand_Instance>  (644) 
nan

>  <PDB_ID>  (644) 
nan

>  <Standardized_SMILES>  (644) 
COc1c(C)c2c(c(O)c1C/C=C(\C)CCC(=O)O)C(=O)OC2

>  <Name>  (644) 
Mycophenolate Sodium

>  <Pocket>  (644) 
nan

>  <ATP_Site>  (644) 
nan

>  <Peripheral>  (644) 
nan

>  <Num_H_Atoms_ProtBoundConf>  (644) 
nan

>  <Num_Resolved_Atoms>  (644) 
nan

>  <Num_Not_Resolved_Atoms>  (644) 
nan

$$$$
CHEMBL2218896
     RDKit          3D

  0  0  0  0  0  0  0  0  0  0999 V3000
M  V30 BEGIN CTAB
M  V30 COUNTS 63 65 0 0 0
M  V30 BEGIN ATOM
M  V30 1 C 3.052685 2.061074 5.138455 0
M  V30 2 C 1.579570 2.406272 5.033708 0
M  V30 3 C 0.810550 1.265399 4.374114 0
M  V30 4 C 1.363822 1.032709 2.993764 0
M  V30 5 C 0.668206 -0.080982 2.253200 0
M  V30 6 C -0.792513 0.234181 2.096881 0
M  V30 7 C -1.568698 -0.806435 1.361215 0
M  V30 8 C -3.022230 -0.310400 1.346520 0
M  V30 9 C -1.467029 -2.178811 1.924479 0
M  V30 10 C -1.182353 -0.746028 -0.094314 0
M  V30 11 C -1.716749 -1.868053 -0.724646 0
M  V30 12 C -1.539803 -2.088556 -2.093826 0
M  V30 13 O -2.050972 -3.191964 -2.777180 0
M  V30 14 C -0.827663 -1.199389 -2.869601 0
M  V30 15 C -0.312950 -0.099687 -2.214308 0
M  V30 16 C -0.478496 0.131945 -0.867133 0
M  V30 17 O 0.436862 0.909668 -2.837873 0
M  V30 18 C 0.822004 0.746565 -4.190162 0
M  V30 19 C 1.070103 2.127137 -4.767998 0
M  V30 20 C 2.056647 -0.107451 -4.260585 0
M  V30 21 C -0.357093 0.114046 -4.897885 0
M  V30 22 C -1.550963 0.995625 -4.668010 0
M  V30 23 C -2.839328 0.284436 -4.461418 0
M  V30 24 C -2.873904 -1.129365 -4.838525 0
M  V30 25 O -3.930377 -1.692246 -4.918418 0
M  V30 26 C -1.655110 -1.894532 -5.126005 0
M  V30 27 C -0.545961 -1.272282 -4.307839 0
M  V30 28 H 3.198909 1.000463 5.428357 0
M  V30 29 H 3.490010 2.702012 5.926108 0
M  V30 30 H 3.569647 2.241720 4.195015 0
M  V30 31 H 1.159905 2.507761 6.054743 0
M  V30 32 H 1.461212 3.349674 4.488335 0
M  V30 33 H -0.245582 1.542780 4.412207 0
M  V30 34 H 0.969573 0.376465 5.003534 0
M  V30 35 H 2.427280 0.703929 3.149536 0
M  V30 36 H 1.390342 1.938937 2.378360 0
M  V30 37 H 1.129303 -0.172084 1.261429 0
M  V30 38 H 0.831770 -1.035842 2.810787 0
M  V30 39 H -0.874444 1.191523 1.541965 0
M  V30 40 H -1.291221 0.405978 3.080448 0
M  V30 41 H -3.409364 -0.130355 2.350368 0
M  V30 42 H -3.631728 -0.977294 0.707684 0
M  V30 43 H -2.984266 0.678140 0.807368 0
M  V30 44 H -2.473298 -2.642494 1.927258 0
M  V30 45 H -1.200680 -2.080774 3.010300 0
M  V30 46 H -0.706636 -2.768811 1.416298 0
M  V30 47 H -2.310327 -2.688010 -0.288598 0
M  V30 48 H -1.899131 -4.119086 -2.419967 0
M  V30 49 H -0.116451 0.969856 -0.308157 0
M  V30 50 H 2.018956 2.472074 -4.353468 0
M  V30 51 H 0.264982 2.797010 -4.411392 0
M  V30 52 H 1.047827 2.121411 -5.868602 0
M  V30 53 H 2.008783 -0.743575 -5.169841 0
M  V30 54 H 2.247729 -0.713010 -3.369415 0
M  V30 55 H 2.965822 0.536119 -4.413892 0
M  V30 56 H -0.118917 -0.041102 -5.968019 0
M  V30 57 H -1.579141 1.715117 -5.528192 0
M  V30 58 H -1.395183 1.670313 -3.775601 0
M  V30 59 H -3.611739 0.797813 -5.105928 0
M  V30 60 H -3.250605 0.432705 -3.420749 0
M  V30 61 H -1.385240 -1.658394 -6.195061 0
M  V30 62 H -1.726072 -2.974278 -5.075337 0
M  V30 63 H 0.381927 -1.834028 -4.507463 0
M  V30 END ATOM
M  V30 BEGIN BOND
M  V30 1 1 1 2
M  V30 2 1 2 3
M  V30 3 1 3 4
M  V30 4 1 4 5
M  V30 5 1 5 6
M  V30 6 1 6 7
M  V30 7 1 7 8
M  V30 8 1 7 9
M  V30 9 1 7 10
M  V30 10 2 10 11
M  V30 11 1 11 12
M  V30 12 1 12 13
M  V30 13 2 12 14
M  V30 14 1 14 15
M  V30 15 2 15 16
M  V30 16 1 15 17
M  V30 17 1 17 18
M  V30 18 1 18 19
M  V30 19 1 18 20
M  V30 20 1 18 21
M  V30 21 1 21 22
M  V30 22 1 22 23
M  V30 23 1 23 24
M  V30 24 2 24 25
M  V30 25 1 24 26
M  V30 26 1 26 27
M  V30 27 1 16 10
M  V30 28 1 27 21
M  V30 29 1 27 14
M  V30 30 1 1 28
M  V30 31 1 1 29
M  V30 32 1 1 30
M  V30 33 1 2 31
M  V30 34 1 2 32
M  V30 35 1 3 33
M  V30 36 1 3 34
M  V30 37 1 4 35
M  V30 38 1 4 36
M  V30 39 1 5 37
M  V30 40 1 5 38
M  V30 41 1 6 39
M  V30 42 1 6 40
M  V30 43 1 8 41
M  V30 44 1 8 42
M  V30 45 1 8 43
M  V30 46 1 9 44
M  V30 47 1 9 45
M  V30 48 1 9 46
M  V30 49 1 11 47
M  V30 50 1 13 48
M  V30 51 1 16 49
M  V30 52 1 19 50
M  V30 53 1 19 51
M  V30 54 1 19 52
M  V30 55 1 20 53
M  V30 56 1 20 54
M  V30 57 1 20 55
M  V30 58 1 21 56
M  V30 59 1 22 57
M  V30 60 1 22 58
M  V30 61 1 23 59
M  V30 62 1 23 60
M  V30 63 1 26 61
M  V30 64 1 26 62
M  V30 65 1 27 63
M  V30 END BOND
M  V30 END CTAB
M  END
>  <Dataset>  (645) 
OralDrugs

>  <Ligand_Instance>  (645) 
nan

>  <PDB_ID>  (645) 
nan

>  <Standardized_SMILES>  (645) 
CCCCCCC(C)(C)c1cc(O)c2c(c1)OC(C)(C)C1CCC(=O)CC21

>  <Name>  (645) 
Nabilone

>  <Pocket>  (645) 
nan

>  <ATP_Site>  (645) 
nan

>  <Peripheral>  (645) 
nan

>  <Num_H_Atoms_ProtBoundConf>  (645) 
nan

>  <Num_Resolved_Atoms>  (645) 
nan

>  <Num_Not_Resolved_Atoms>  (645) 
nan

$$$$
CHEMBL521606
     RDKit          3D

  0  0  0  0  0  0  0  0  0  0999 V3000
M  V30 BEGIN CTAB
M  V30 COUNTS 49 50 0 0 0
M  V30 BEGIN ATOM
M  V30 1 C 2.175561 -4.811143 2.292198 0
M  V30 2 C 2.032964 -4.598048 0.800526 0
M  V30 3 C 2.838957 -5.695059 0.129943 0
M  V30 4 C 0.583727 -4.841014 0.476423 0
M  V30 5 N 2.542281 -3.347353 0.350936 0
M  V30 6 C 1.939275 -2.190850 0.913189 0
M  V30 7 C 2.547002 -0.915618 0.374388 0
M  V30 8 O 2.414430 -0.797543 -0.996640 0
M  V30 9 C 1.955789 0.311004 0.982051 0
M  V30 10 O 0.577322 0.469725 0.657330 0
M  V30 11 C -0.062987 1.587971 1.179848 0
M  V30 12 C 0.547088 2.547834 1.987617 0
M  V30 13 C -0.193700 3.624878 2.452435 0
M  V30 14 C -1.530349 3.717350 2.097959 0
M  V30 15 C -2.117545 2.770694 1.305791 0
M  V30 16 C -1.409990 1.686029 0.825767 0
M  V30 17 C -2.084912 0.688355 -0.026418 0
M  V30 18 C -3.210118 1.236011 -0.828244 0
M  V30 19 O -4.249002 0.276011 -0.842935 0
M  V30 20 C -3.772144 2.541051 -0.423446 0
M  V30 21 O -3.271206 3.563997 -1.245430 0
M  V30 22 C -3.562106 2.967349 0.985014 0
M  V30 23 H 1.794237 -5.853020 2.490889 0
M  V30 24 H 3.198704 -4.715753 2.648965 0
M  V30 25 H 1.449378 -4.151869 2.809265 0
M  V30 26 H 2.214177 -6.612448 0.108410 0
M  V30 27 H 3.085688 -5.333481 -0.889635 0
M  V30 28 H 3.775377 -5.877525 0.721852 0
M  V30 29 H -0.072050 -4.706778 1.363088 0
M  V30 30 H 0.420599 -5.882776 0.116066 0
M  V30 31 H 0.167350 -4.193365 -0.310727 0
M  V30 32 H 3.578023 -3.369948 0.481113 0
M  V30 33 H 0.854400 -2.246459 0.854612 0
M  V30 34 H 2.190918 -2.189155 2.008203 0
M  V30 35 H 3.622407 -0.926597 0.630386 0
M  V30 36 H 2.556031 -1.644162 -1.478566 0
M  V30 37 H 2.475563 1.191345 0.568782 0
M  V30 38 H 2.142069 0.309126 2.074591 0
M  V30 39 H 1.593775 2.404255 2.219326 0
M  V30 40 H 0.255287 4.364247 3.068150 0
M  V30 41 H -2.072297 4.568850 2.478969 0
M  V30 42 H -2.384255 -0.226058 0.541921 0
M  V30 43 H -1.302379 0.305801 -0.734700 0
M  V30 44 H -2.942141 1.321537 -1.923213 0
M  V30 45 H -3.849584 -0.626100 -0.781741 0
M  V30 46 H -4.885139 2.549121 -0.601708 0
M  V30 47 H -3.959452 4.270696 -1.406522 0
M  V30 48 H -4.160411 2.335125 1.680731 0
M  V30 49 H -3.843709 4.036310 1.058790 0
M  V30 END ATOM
M  V30 BEGIN BOND
M  V30 1 1 1 2
M  V30 2 1 2 3
M  V30 3 1 2 4
M  V30 4 1 2 5
M  V30 5 1 5 6
M  V30 6 1 6 7
M  V30 7 1 7 8
M  V30 8 1 7 9
M  V30 9 1 9 10
M  V30 10 1 10 11
M  V30 11 2 11 12
M  V30 12 1 12 13
M  V30 13 2 13 14
M  V30 14 1 14 15
M  V30 15 2 15 16
M  V30 16 1 16 17
M  V30 17 1 17 18
M  V30 18 1 18 19
M  V30 19 1 18 20
M  V30 20 1 20 21
M  V30 21 1 20 22
M  V30 22 1 16 11
M  V30 23 1 22 15
M  V30 24 1 1 23
M  V30 25 1 1 24
M  V30 26 1 1 25
M  V30 27 1 3 26
M  V30 28 1 3 27
M  V30 29 1 3 28
M  V30 30 1 4 29
M  V30 31 1 4 30
M  V30 32 1 4 31
M  V30 33 1 5 32
M  V30 34 1 6 33
M  V30 35 1 6 34
M  V30 36 1 7 35
M  V30 37 1 8 36
M  V30 38 1 9 37
M  V30 39 1 9 38
M  V30 40 1 12 39
M  V30 41 1 13 40
M  V30 42 1 14 41
M  V30 43 1 17 42
M  V30 44 1 17 43
M  V30 45 1 18 44
M  V30 46 1 19 45
M  V30 47 1 20 46
M  V30 48 1 21 47
M  V30 49 1 22 48
M  V30 50 1 22 49
M  V30 END BOND
M  V30 END CTAB
M  END
>  <Dataset>  (646) 
OralDrugs

>  <Ligand_Instance>  (646) 
nan

>  <PDB_ID>  (646) 
nan

>  <Standardized_SMILES>  (646) 
CC(C)(C)NCC(O)COc1cccc2c1CC(O)C(O)C2

>  <Name>  (646) 
Nadolol

>  <Pocket>  (646) 
nan

>  <ATP_Site>  (646) 
nan

>  <Peripheral>  (646) 
nan

>  <Num_H_Atoms_ProtBoundConf>  (646) 
nan

>  <Num_Resolved_Atoms>  (646) 
nan

>  <Num_Not_Resolved_Atoms>  (646) 
nan

$$$$
CHEMBL1443
     RDKit          3D

  0  0  0  0  0  0  0  0  0  0999 V3000
M  V30 BEGIN CTAB
M  V30 COUNTS 51 54 0 0 0
M  V30 BEGIN ATOM
M  V30 1 C 1.770140 -2.361480 3.437996 0
M  V30 2 C 1.535757 -2.353747 1.962984 0
M  V30 3 O 1.279271 -1.079444 1.495435 0
M  V30 4 C 2.029924 0.043765 1.511444 0
M  V30 5 C 3.271039 -0.076665 2.079479 0
M  V30 6 C 4.148707 0.979928 2.168490 0
M  V30 7 C 3.708605 2.176952 1.650583 0
M  V30 8 C 4.600159 3.212597 1.749781 0
M  V30 9 C 4.276808 4.451696 1.268895 0
M  V30 10 C 3.058631 4.635253 0.692867 0
M  V30 11 C 2.207754 3.554602 0.623639 0
M  V30 12 C 2.457003 2.280998 1.082152 0
M  V30 13 C 1.573520 1.230706 0.989033 0
M  V30 14 C 0.282931 1.436603 0.367081 0
M  V30 15 O -0.339780 2.395095 -0.108604 0
M  V30 16 N -0.701449 0.449797 0.124936 0
M  V30 17 C -1.979894 0.528164 -0.464389 0 CFG=2
M  V30 18 C -2.995889 0.032978 0.549597 0
M  V30 19 O -3.808718 0.406094 1.420978 0
M  V30 20 N -2.642586 -1.261663 0.082284 0
M  V30 21 C -2.579163 -0.544262 -1.210982 0 CFG=2
M  V30 22 S -1.722862 -1.705629 -2.235001 0
M  V30 23 C -2.480779 -3.143632 -1.359219 0
M  V30 24 C -1.597473 -4.317907 -1.685427 0
M  V30 25 C -3.902092 -3.336915 -1.768423 0
M  V30 26 C -2.337975 -2.644198 0.029892 0 CFG=2
M  V30 27 C -3.198943 -3.365097 1.002861 0
M  V30 28 O -3.002530 -4.622965 1.034281 0
M  V30 29 O -4.201149 -3.260635 1.967339 0
M  V30 30 H 0.953768 -2.933380 3.961479 0
M  V30 31 H 1.763198 -1.368310 3.921515 0
M  V30 32 H 2.738140 -2.859739 3.695758 0
M  V30 33 H 2.470848 -2.707222 1.450301 0
M  V30 34 H 0.702842 -3.029214 1.657787 0
M  V30 35 H 3.618300 -1.016635 2.480006 0
M  V30 36 H 5.121930 0.860436 2.621047 0
M  V30 37 H 5.589397 3.098668 2.207862 0
M  V30 38 H 4.985809 5.260605 1.351775 0
M  V30 39 H 2.807687 5.615022 0.314639 0
M  V30 40 H 1.267683 3.787552 0.152643 0
M  V30 41 H -0.520628 -0.563895 0.403507 0
M  V30 42 H -2.275191 1.558772 -0.809851 0
M  V30 43 H -3.585777 -0.312933 -1.560382 0
M  V30 44 H -0.709188 -4.250954 -1.035657 0
M  V30 45 H -1.228431 -4.189599 -2.725789 0
M  V30 46 H -2.107512 -5.290063 -1.550201 0
M  V30 47 H -4.566466 -2.985769 -0.964726 0
M  V30 48 H -4.086558 -2.851897 -2.747948 0
M  V30 49 H -4.061662 -4.433137 -1.860706 0
M  V30 50 H -1.288856 -2.891980 0.339930 0
M  V30 51 H -4.050596 -3.364023 2.961690 0
M  V30 END ATOM
M  V30 BEGIN BOND
M  V30 1 1 1 2
M  V30 2 1 2 3
M  V30 3 1 3 4
M  V30 4 2 4 5
M  V30 5 1 5 6
M  V30 6 2 6 7
M  V30 7 1 7 8
M  V30 8 2 8 9
M  V30 9 1 9 10
M  V30 10 2 10 11
M  V30 11 1 11 12
M  V30 12 2 12 13
M  V30 13 1 13 14
M  V30 14 2 14 15
M  V30 15 1 14 16
M  V30 16 1 16 17
M  V30 17 1 17 18
M  V30 18 2 18 19
M  V30 19 1 18 20
M  V30 20 1 20 21
M  V30 21 1 21 22
M  V30 22 1 22 23
M  V30 23 1 23 24
M  V30 24 1 23 25
M  V30 25 1 23 26
M  V30 26 1 26 27
M  V30 27 2 27 28
M  V30 28 1 27 29
M  V30 29 1 13 4
M  V30 30 1 21 17
M  V30 31 1 12 7
M  V30 32 1 26 20
M  V30 33 1 1 30
M  V30 34 1 1 31
M  V30 35 1 1 32
M  V30 36 1 2 33
M  V30 37 1 2 34
M  V30 38 1 5 35
M  V30 39 1 6 36
M  V30 40 1 8 37
M  V30 41 1 9 38
M  V30 42 1 10 39
M  V30 43 1 11 40
M  V30 44 1 16 41
M  V30 45 1 17 42 CFG=3
M  V30 46 1 21 43 CFG=3
M  V30 47 1 24 44
M  V30 48 1 24 45
M  V30 49 1 24 46
M  V30 50 1 25 47
M  V30 51 1 25 48
M  V30 52 1 25 49
M  V30 53 1 26 50 CFG=1
M  V30 54 1 29 51
M  V30 END BOND
M  V30 END CTAB
M  END
>  <Dataset>  (647) 
OralDrugs

>  <Ligand_Instance>  (647) 
nan

>  <PDB_ID>  (647) 
nan

>  <Standardized_SMILES>  (647) 
CCOc1ccc2ccccc2c1C(=O)N[C@@H]1C(=O)N2[C@@H]1SC(C)(C)[C@@H]2C(=O)O

>  <Name>  (647) 
Nafcillin

>  <Pocket>  (647) 
nan

>  <ATP_Site>  (647) 
nan

>  <Peripheral>  (647) 
nan

>  <Num_H_Atoms_ProtBoundConf>  (647) 
nan

>  <Num_Resolved_Atoms>  (647) 
nan

>  <Num_Not_Resolved_Atoms>  (647) 
nan

$$$$
CHEMBL142635
     RDKit          3D

  0  0  0  0  0  0  0  0  0  0999 V3000
M  V30 BEGIN CTAB
M  V30 COUNTS 57 60 0 0 0
M  V30 BEGIN ATOM
M  V30 1 C 1.625890 -4.707155 0.532695 0
M  V30 2 O 1.651455 -3.291655 0.631766 0
M  V30 3 C 2.589939 -2.698715 1.465894 0
M  V30 4 C 3.505153 -3.455644 2.205338 0
M  V30 5 C 4.443123 -2.841198 3.040264 0
M  V30 6 C 4.479078 -1.466184 3.147187 0
M  V30 7 C 3.581772 -0.699793 2.423538 0
M  V30 8 C 2.656056 -1.329008 1.598308 0
M  V30 9 N 1.777669 -0.457875 0.896638 0
M  V30 10 C 0.306341 -0.347777 0.904107 0
M  V30 11 C 0.023862 1.144225 1.044493 0
M  V30 12 N 0.425880 1.778864 -0.135577 0
M  V30 13 C -0.273414 2.785706 -0.754997 0
M  V30 14 C -1.546615 2.600761 -1.477347 0
M  V30 15 O -1.853370 3.954383 -1.929308 0
M  V30 16 C -2.761287 2.200245 -0.738271 0
M  V30 17 O -2.811000 0.904076 -0.262083 0
M  V30 18 C -2.781656 -0.295329 -0.873527 0
M  V30 19 C -2.693499 -0.704855 -2.183067 0
M  V30 20 C -2.676327 -2.002377 -2.635620 0
M  V30 21 C -2.754722 -3.009563 -1.699944 0
M  V30 22 C -2.846090 -2.678042 -0.364925 0
M  V30 23 C -2.923250 -3.746340 0.498927 0
M  V30 24 C -3.019282 -3.509672 1.836220 0
M  V30 25 C -3.038955 -2.218360 2.317809 0
M  V30 26 C -2.959345 -1.189161 1.417534 0
M  V30 27 C -2.859994 -1.346796 0.050735 0
M  V30 28 C 1.372124 1.040312 -0.936031 0
M  V30 29 C 2.419652 0.499923 0.016600 0
M  V30 30 H 1.598008 -5.065835 1.602633 0
M  V30 31 H 0.693112 -5.009901 0.016213 0
M  V30 32 H 2.533645 -5.106612 0.041119 0
M  V30 33 H 3.503517 -4.518069 2.145173 0
M  V30 34 H 5.154408 -3.413204 3.616146 0
M  V30 35 H 5.186936 -0.918603 3.782490 0
M  V30 36 H 3.619878 0.384259 2.515665 0
M  V30 37 H -0.114688 -0.883480 1.770740 0
M  V30 38 H -0.040635 -0.722030 -0.078939 0
M  V30 39 H 0.788620 1.466978 1.841540 0
M  V30 40 H -0.927071 1.389023 1.495447 0
M  V30 41 H 0.434424 3.273106 -1.515965 0
M  V30 42 H -0.394689 3.636075 -0.013470 0
M  V30 43 H -1.424596 2.047602 -2.406790 0
M  V30 44 H -1.760800 4.518723 -1.104313 0
M  V30 45 H -3.697113 2.336241 -1.376348 0
M  V30 46 H -2.983821 2.867311 0.137598 0
M  V30 47 H -2.641687 0.110356 -2.884351 0
M  V30 48 H -2.602461 -2.163667 -3.698940 0
M  V30 49 H -2.737812 -4.009700 -2.099190 0
M  V30 50 H -2.912437 -4.775383 0.178957 0
M  V30 51 H -3.082835 -4.323338 2.556665 0
M  V30 52 H -3.114376 -1.962248 3.375472 0
M  V30 53 H -2.974771 -0.160610 1.799133 0
M  V30 54 H 1.919026 1.823731 -1.537683 0
M  V30 55 H 0.927435 0.277535 -1.591601 0
M  V30 56 H 2.762267 1.400117 0.607866 0
M  V30 57 H 3.291342 0.074878 -0.521531 0
M  V30 END ATOM
M  V30 BEGIN BOND
M  V30 1 1 1 2
M  V30 2 1 2 3
M  V30 3 2 3 4
M  V30 4 1 4 5
M  V30 5 2 5 6
M  V30 6 1 6 7
M  V30 7 2 7 8
M  V30 8 1 8 9
M  V30 9 1 9 10
M  V30 10 1 10 11
M  V30 11 1 11 12
M  V30 12 1 12 13
M  V30 13 1 13 14
M  V30 14 1 14 15
M  V30 15 1 14 16
M  V30 16 1 16 17
M  V30 17 1 17 18
M  V30 18 2 18 19
M  V30 19 1 19 20
M  V30 20 2 20 21
M  V30 21 1 21 22
M  V30 22 2 22 23
M  V30 23 1 23 24
M  V30 24 2 24 25
M  V30 25 1 25 26
M  V30 26 2 26 27
M  V30 27 1 12 28
M  V30 28 1 28 29
M  V30 29 1 8 3
M  V30 30 1 29 9
M  V30 31 1 27 18
M  V30 32 1 27 22
M  V30 33 1 1 30
M  V30 34 1 1 31
M  V30 35 1 1 32
M  V30 36 1 4 33
M  V30 37 1 5 34
M  V30 38 1 6 35
M  V30 39 1 7 36
M  V30 40 1 10 37
M  V30 41 1 10 38
M  V30 42 1 11 39
M  V30 43 1 11 40
M  V30 44 1 13 41
M  V30 45 1 13 42
M  V30 46 1 14 43
M  V30 47 1 15 44
M  V30 48 1 16 45
M  V30 49 1 16 46
M  V30 50 1 19 47
M  V30 51 1 20 48
M  V30 52 1 21 49
M  V30 53 1 23 50
M  V30 54 1 24 51
M  V30 55 1 25 52
M  V30 56 1 26 53
M  V30 57 1 28 54
M  V30 58 1 28 55
M  V30 59 1 29 56
M  V30 60 1 29 57
M  V30 END BOND
M  V30 END CTAB
M  END
>  <Dataset>  (648) 
OralDrugs

>  <Ligand_Instance>  (648) 
nan

>  <PDB_ID>  (648) 
nan

>  <Standardized_SMILES>  (648) 
COc1ccccc1N1CCN(CC(O)COc2cccc3ccccc23)CC1

>  <Name>  (648) 
Naftopidil

>  <Pocket>  (648) 
nan

>  <ATP_Site>  (648) 
nan

>  <Peripheral>  (648) 
nan

>  <Num_H_Atoms_ProtBoundConf>  (648) 
nan

>  <Num_Resolved_Atoms>  (648) 
nan

>  <Num_Not_Resolved_Atoms>  (648) 
nan

$$$$
CHEMBL2105755
     RDKit          3D

  0  0  0  0  0  0  0  0  0  0999 V3000
M  V30 BEGIN CTAB
M  V30 COUNTS 76 83 0 0 0
M  V30 BEGIN ATOM
M  V30 1 C 1.353352 -4.473224 3.332721 0
M  V30 2 C 1.786056 -4.055342 1.921118 0
M  V30 3 C 2.261588 -5.312598 1.224935 0
M  V30 4 N 0.666902 -3.448845 1.251008 0
M  V30 5 C 0.917983 -3.011848 -0.078312 0
M  V30 6 O 2.107625 -3.245498 -0.428838 0
M  V30 7 C -0.081857 -2.373448 -0.925103 0
M  V30 8 C 0.335406 -2.032951 -2.141891 0
M  V30 9 O 1.650330 -2.300502 -2.509130 0
M  V30 10 C -0.617036 -1.380314 -3.062302 0 CFG=2
M  V30 11 O 0.114703 -0.287815 -3.678023 0
M  V30 12 C 0.425916 0.543113 -2.583247 0
M  V30 13 C 1.416184 1.437605 -2.166949 0
M  V30 14 O 2.461777 1.621165 -3.070688 0
M  V30 15 C 1.331120 2.080471 -0.932346 0
M  V30 16 C 0.241375 1.835371 -0.084620 0
M  V30 17 C -0.769690 0.966077 -0.432238 0
M  V30 18 C -0.576610 0.407432 -1.647716 0
M  V30 19 C -1.565719 -0.547593 -2.223343 0 CFG=1
M  V30 20 C -2.526732 0.223466 -3.056493 0
M  V30 21 C -3.859931 0.371898 -2.419565 0
M  V30 22 N -3.824894 0.646544 -1.010934 0
M  V30 23 C -5.168937 0.485079 -0.499830 0
M  V30 24 C -5.334173 0.792323 0.949989 0
M  V30 25 C -6.719051 0.645336 1.573941 0
M  V30 26 C -6.227744 1.980710 1.230589 0
M  V30 27 C -2.952397 -0.211244 -0.267678 0 CFG=2
M  V30 28 C -1.928369 0.653196 0.425879 0
M  V30 29 C -2.280180 -1.247698 -1.140557 0 CFG=1
M  V30 30 O -3.315077 -2.026121 -1.708059 0
M  V30 31 C -1.423888 -2.185077 -0.331087 0
M  V30 32 C 2.926853 -3.107213 2.071260 0
M  V30 33 N 2.946018 -1.770396 2.192089 0
M  V30 34 C 4.208711 -1.350756 2.302135 0
M  V30 35 C 4.846718 -0.066385 2.453944 0
M  V30 36 C 6.045195 0.261386 1.849135 0
M  V30 37 C 6.546225 1.519953 2.075802 0
M  V30 38 C 5.928052 2.468698 2.865530 0
M  V30 39 C 4.728183 2.146395 3.473453 0
M  V30 40 C 4.218437 0.888224 3.252482 0
M  V30 41 N 4.951526 -2.450957 2.246201 0
M  V30 42 O 4.201408 -3.492065 2.109848 0
M  V30 43 H 1.016289 -3.580815 3.884169 0
M  V30 44 H 0.626656 -5.286459 3.294831 0
M  V30 45 H 2.311891 -4.790691 3.826657 0
M  V30 46 H 1.448408 -5.719441 0.575699 0
M  V30 47 H 2.541374 -6.084697 1.970700 0
M  V30 48 H 3.188231 -5.091947 0.636625 0
M  V30 49 H -0.302212 -3.306900 1.661069 0
M  V30 50 H 2.181947 -1.541485 -2.946461 0
M  V30 51 H -1.096335 -2.025775 -3.790242 0
M  V30 52 H 2.603952 2.556543 -3.426446 0
M  V30 53 H 2.137920 2.768893 -0.664593 0
M  V30 54 H 0.195448 2.354739 0.886741 0
M  V30 55 H -2.658541 -0.243987 -4.073231 0
M  V30 56 H -2.072256 1.224462 -3.302331 0
M  V30 57 H -4.614521 -0.395086 -2.690181 0
M  V30 58 H -4.297473 1.319481 -2.874007 0
M  V30 59 H -5.454097 -0.598881 -0.637076 0
M  V30 60 H -5.874309 1.038881 -1.152168 0
M  V30 61 H -4.523785 0.552744 1.642320 0
M  V30 62 H -6.793582 0.380703 2.647907 0
M  V30 63 H -7.450074 0.161126 0.903058 0
M  V30 64 H -6.686786 2.503375 0.394060 0
M  V30 65 H -5.804638 2.655995 2.000733 0
M  V30 66 H -3.497610 -0.761605 0.533211 0
M  V30 67 H -2.394306 1.561620 0.859097 0
M  V30 68 H -1.533587 0.097945 1.321392 0
M  V30 69 H -2.998303 -2.658173 -2.377176 0
M  V30 70 H -1.374519 -1.840879 0.719490 0
M  V30 71 H -1.879037 -3.194106 -0.286232 0
M  V30 72 H 6.540541 -0.470613 1.228257 0
M  V30 73 H 7.478020 1.833385 1.630556 0
M  V30 74 H 6.325714 3.449829 3.037974 0
M  V30 75 H 4.223071 2.876865 4.099637 0
M  V30 76 H 3.273754 0.678573 3.750306 0
M  V30 END ATOM
M  V30 BEGIN BOND
M  V30 1 1 1 2
M  V30 2 1 2 3
M  V30 3 1 2 4
M  V30 4 1 4 5
M  V30 5 2 5 6
M  V30 6 1 5 7
M  V30 7 2 7 8
M  V30 8 1 8 9
M  V30 9 1 8 10
M  V30 10 1 10 11
M  V30 11 1 11 12
M  V30 12 2 12 13
M  V30 13 1 13 14
M  V30 14 1 13 15
M  V30 15 2 15 16
M  V30 16 1 16 17
M  V30 17 2 17 18
M  V30 18 1 18 19
M  V30 19 1 19 20 CFG=3
M  V30 20 1 20 21
M  V30 21 1 21 22
M  V30 22 1 22 23
M  V30 23 1 23 24
M  V30 24 1 24 25
M  V30 25 1 25 26
M  V30 26 1 22 27
M  V30 27 1 27 28
M  V30 28 1 27 29
M  V30 29 1 29 30 CFG=3
M  V30 30 1 29 31
M  V30 31 1 2 32
M  V30 32 2 32 33
M  V30 33 1 33 34
M  V30 34 1 34 35
M  V30 35 2 35 36
M  V30 36 1 36 37
M  V30 37 2 37 38
M  V30 38 1 38 39
M  V30 39 2 39 40
M  V30 40 2 34 41
M  V30 41 1 41 42
M  V30 42 1 31 7
M  V30 43 1 42 32
M  V30 44 1 19 10
M  V30 45 1 26 24
M  V30 46 1 40 35
M  V30 47 1 18 12
M  V30 48 1 29 19
M  V30 49 1 28 17
M  V30 50 1 1 43
M  V30 51 1 1 44
M  V30 52 1 1 45
M  V30 53 1 3 46
M  V30 54 1 3 47
M  V30 55 1 3 48
M  V30 56 1 4 49
M  V30 57 1 9 50
M  V30 58 1 10 51 CFG=3
M  V30 59 1 14 52
M  V30 60 1 15 53
M  V30 61 1 16 54
M  V30 62 1 20 55
M  V30 63 1 20 56
M  V30 64 1 21 57
M  V30 65 1 21 58
M  V30 66 1 23 59
M  V30 67 1 23 60
M  V30 68 1 24 61
M  V30 69 1 25 62
M  V30 70 1 25 63
M  V30 71 1 26 64
M  V30 72 1 26 65
M  V30 73 1 27 66 CFG=1
M  V30 74 1 28 67
M  V30 75 1 28 68
M  V30 76 1 30 69
M  V30 77 1 31 70
M  V30 78 1 31 71
M  V30 79 1 36 72
M  V30 80 1 37 73
M  V30 81 1 38 74
M  V30 82 1 39 75
M  V30 83 1 40 76
M  V30 END BOND
M  V30 END CTAB
M  END
>  <Dataset>  (649) 
OralDrugs

>  <Ligand_Instance>  (649) 
nan

>  <PDB_ID>  (649) 
nan

>  <Standardized_SMILES>  (649) 
CC(C)(NC(=O)C1=C(O)[C@@H]2Oc3c(O)ccc4c3[C@@]23CCN(CC2CC2)[C@H](C4)[C@]3(O)C1)c1nc(-c2ccccc2)no1

>  <Name>  (649) 
Naldemedine

>  <Pocket>  (649) 
nan

>  <ATP_Site>  (649) 
nan

>  <Peripheral>  (649) 
nan

>  <Num_H_Atoms_ProtBoundConf>  (649) 
nan

>  <Num_Resolved_Atoms>  (649) 
nan

>  <Num_Not_Resolved_Atoms>  (649) 
nan

$$$$
CHEMBL267495
     RDKit          3D

  0  0  0  0  0  0  0  0  0  0999 V3000
M  V30 BEGIN CTAB
M  V30 COUNTS 67 73 0 0 0
M  V30 BEGIN ATOM
M  V30 1 C -0.114011 -3.177747 -1.565839 0
M  V30 2 N 0.712725 -2.027178 -1.784366 0
M  V30 3 C 1.466727 -1.627268 -2.891220 0
M  V30 4 O 0.905735 -2.710091 -3.159539 0
M  V30 5 C 2.275753 -1.110939 -3.957920 0
M  V30 6 C 2.383339 -1.762954 -5.101201 0
M  V30 7 C 3.228953 -1.131857 -6.087645 0
M  V30 8 C 3.924958 0.056225 -5.977077 0
M  V30 9 C 4.576833 0.210891 -7.190384 0
M  V30 10 O 4.269030 -0.812646 -7.924063 0
M  V30 11 C 3.477193 -1.650642 -7.344130 0
M  V30 12 C 0.895112 -0.997601 -0.758259 0 CFG=2
M  V30 13 C 1.701078 -1.501588 0.397434 0
M  V30 14 C 1.337157 -0.881925 1.729996 0
M  V30 15 C -0.116554 -1.105740 1.889862 0 CFG=1
M  V30 16 O -0.376592 -2.442125 1.607837 0
M  V30 17 C -0.638893 -0.854414 3.288484 0 CFG=1
M  V30 18 C -0.721169 0.584274 3.676340 0
M  V30 19 C -0.390037 1.542880 2.608473 0
M  V30 20 C -0.010539 2.845834 2.787808 0
M  V30 21 C 0.293582 3.677906 1.703642 0
M  V30 22 C 0.218961 3.202449 0.403642 0
M  V30 23 O 0.510433 3.987157 -0.717093 0
M  V30 24 C -0.160152 1.883682 0.127345 0
M  V30 25 C -0.429905 1.181220 1.282363 0
M  V30 26 C -0.838556 -0.226725 0.938059 0 CFG=2
M  V30 27 C -2.320472 -0.349959 1.044633 0
M  V30 28 C -2.862100 -0.892506 2.311854 0
M  V30 29 N -1.954981 -1.388223 3.254568 0
M  V30 30 C -2.354738 -2.337225 4.183829 0
M  V30 31 C -3.331970 -1.893300 5.229160 0
M  V30 32 C -3.798784 -2.882631 6.262645 0
M  V30 33 C -2.998814 -1.647154 6.628104 0
M  V30 34 C -0.366631 -0.307922 -0.474161 0 CFG=1
M  V30 35 O -0.355109 1.036462 -0.965577 0
M  V30 36 H -0.475462 -3.697269 -2.457074 0
M  V30 37 H 0.406838 -3.962573 -0.949904 0
M  V30 38 H -1.034583 -2.820006 -1.024643 0
M  V30 39 H 2.771555 -0.174023 -3.751222 0
M  V30 40 H 1.879468 -2.698816 -5.289473 0
M  V30 41 H 3.965396 0.726853 -5.142688 0
M  V30 42 H 5.212170 1.074615 -7.392631 0
M  V30 43 H 3.104480 -2.570980 -7.794208 0
M  V30 44 H 1.587223 -0.264102 -1.277267 0
M  V30 45 H 1.540970 -2.595089 0.492849 0
M  V30 46 H 2.794626 -1.370542 0.267055 0
M  V30 47 H 1.583940 0.192025 1.653431 0
M  V30 48 H 1.937341 -1.402619 2.498332 0
M  V30 49 H -1.223113 -2.764009 1.951267 0
M  V30 50 H -0.023162 -1.455947 3.965062 0
M  V30 51 H -0.091781 0.807702 4.587619 0
M  V30 52 H -1.760419 0.868398 4.012769 0
M  V30 53 H 0.050530 3.229915 3.812656 0
M  V30 54 H 0.596746 4.719474 1.854732 0
M  V30 55 H 1.153919 4.773861 -0.609496 0
M  V30 56 H -2.748564 0.691337 0.926001 0
M  V30 57 H -2.732320 -0.878229 0.130835 0
M  V30 58 H -3.550489 -1.746287 2.028715 0
M  V30 59 H -3.562225 -0.179805 2.830888 0
M  V30 60 H -2.845495 -3.201391 3.657387 0
M  V30 61 H -1.466857 -2.788163 4.680856 0
M  V30 62 H -4.171883 -1.278568 4.802502 0
M  V30 63 H -4.834803 -2.873661 6.639003 0
M  V30 64 H -3.321561 -3.874715 6.339122 0
M  V30 65 H -3.539750 -0.816098 7.159953 0
M  V30 66 H -2.033300 -1.864663 7.097450 0
M  V30 67 H -1.196235 -0.795461 -1.052707 0
M  V30 END ATOM
M  V30 BEGIN BOND
M  V30 1 1 1 2
M  V30 2 1 2 3
M  V30 3 2 3 4
M  V30 4 1 3 5
M  V30 5 2 5 6
M  V30 6 1 6 7
M  V30 7 1 7 8
M  V30 8 2 8 9
M  V30 9 1 9 10
M  V30 10 1 10 11
M  V30 11 1 2 12
M  V30 12 1 12 13
M  V30 13 1 13 14
M  V30 14 1 14 15
M  V30 15 1 15 16 CFG=3
M  V30 16 1 15 17
M  V30 17 1 17 18
M  V30 18 1 18 19
M  V30 19 2 19 20
M  V30 20 1 20 21
M  V30 21 2 21 22
M  V30 22 1 22 23
M  V30 23 1 22 24
M  V30 24 2 24 25
M  V30 25 1 25 26
M  V30 26 1 26 27 CFG=3
M  V30 27 1 27 28
M  V30 28 1 28 29
M  V30 29 1 29 30
M  V30 30 1 30 31
M  V30 31 1 31 32
M  V30 32 1 32 33
M  V30 33 1 26 34
M  V30 34 1 34 35
M  V30 35 2 11 7
M  V30 36 1 34 12
M  V30 37 1 26 15
M  V30 38 1 33 31
M  V30 39 1 29 17
M  V30 40 1 25 19
M  V30 41 1 35 24
M  V30 42 1 1 36
M  V30 43 1 1 37
M  V30 44 1 1 38
M  V30 45 1 5 39
M  V30 46 1 6 40
M  V30 47 1 8 41
M  V30 48 1 9 42
M  V30 49 1 11 43
M  V30 50 1 12 44 CFG=3
M  V30 51 1 13 45
M  V30 52 1 13 46
M  V30 53 1 14 47
M  V30 54 1 14 48
M  V30 55 1 16 49
M  V30 56 1 17 50 CFG=1
M  V30 57 1 18 51
M  V30 58 1 18 52
M  V30 59 1 20 53
M  V30 60 1 21 54
M  V30 61 1 23 55
M  V30 62 1 27 56
M  V30 63 1 27 57
M  V30 64 1 28 58
M  V30 65 1 28 59
M  V30 66 1 30 60
M  V30 67 1 30 61
M  V30 68 1 31 62
M  V30 69 1 32 63
M  V30 70 1 32 64
M  V30 71 1 33 65
M  V30 72 1 33 66
M  V30 73 1 34 67 CFG=3
M  V30 END BOND
M  V30 END CTAB
M  END
>  <Dataset>  (650) 
OralDrugs

>  <Ligand_Instance>  (650) 
nan

>  <PDB_ID>  (650) 
nan

>  <Standardized_SMILES>  (650) 
CN(C(=O)/C=C/c1ccoc1)[C@@H]1CC[C@@]2(O)[C@H]3Cc4ccc(O)c5c4[C@@]2(CCN3CC2CC2)[C@H]1O5

>  <Name>  (650) 
Nalfurafine

>  <Pocket>  (650) 
nan

>  <ATP_Site>  (650) 
nan

>  <Peripheral>  (650) 
nan

>  <Num_H_Atoms_ProtBoundConf>  (650) 
nan

>  <Num_Resolved_Atoms>  (650) 
nan

>  <Num_Not_Resolved_Atoms>  (650) 
nan

$$$$
CHEMBL5
     RDKit          3D

  0  0  0  0  0  0  0  0  0  0999 V3000
M  V30 BEGIN CTAB
M  V30 COUNTS 29 30 0 0 0
M  V30 BEGIN ATOM
M  V30 1 C -1.674012 -2.995782 0.998463 0
M  V30 2 C -0.486347 -2.615317 1.851484 0
M  V30 3 N 0.357786 -1.737983 1.044283 0
M  V30 4 C 1.324729 -2.292560 0.281660 0
M  V30 5 C 2.088363 -1.411579 -0.457661 0
M  V30 6 C 3.149867 -1.950730 -1.302150 0
M  V30 7 O 3.879581 -1.199270 -1.999279 0
M  V30 8 O 3.512191 -3.259222 -1.473549 0
M  V30 9 C 1.946286 -0.037404 -0.479924 0
M  V30 10 O 2.689652 0.691497 -1.186252 0
M  V30 11 C 0.932684 0.469085 0.327275 0
M  V30 12 C 0.763991 1.841584 0.327783 0
M  V30 13 C -0.249489 2.361737 1.133487 0
M  V30 14 C -1.025475 1.475257 1.883861 0
M  V30 15 C -2.108527 2.048871 2.743034 0
M  V30 16 N -0.807637 0.146954 1.837069 0
M  V30 17 C 0.160080 -0.398479 1.072811 0
M  V30 18 H -1.288096 -3.611929 0.163314 0
M  V30 19 H -2.441177 -3.534878 1.596820 0
M  V30 20 H -2.061728 -2.056388 0.561000 0
M  V30 21 H -0.787889 -2.075554 2.774142 0
M  V30 22 H 0.089418 -3.510434 2.197766 0
M  V30 23 H 1.512288 -3.356950 0.233144 0
M  V30 24 H 4.468568 -3.619340 -1.330134 0
M  V30 25 H 1.379834 2.514060 -0.264496 0
M  V30 26 H -0.425053 3.430154 1.171402 0
M  V30 27 H -2.216229 1.509208 3.706524 0
M  V30 28 H -1.881833 3.099786 3.024461 0
M  V30 29 H -3.078928 2.023209 2.212355 0
M  V30 END ATOM
M  V30 BEGIN BOND
M  V30 1 1 1 2
M  V30 2 1 2 3
M  V30 3 1 3 4
M  V30 4 2 4 5
M  V30 5 1 5 6
M  V30 6 2 6 7
M  V30 7 1 6 8
M  V30 8 1 5 9
M  V30 9 2 9 10
M  V30 10 1 9 11
M  V30 11 2 11 12
M  V30 12 1 12 13
M  V30 13 2 13 14
M  V30 14 1 14 15
M  V30 15 1 14 16
M  V30 16 2 16 17
M  V30 17 1 17 3
M  V30 18 1 17 11
M  V30 19 1 1 18
M  V30 20 1 1 19
M  V30 21 1 1 20
M  V30 22 1 2 21
M  V30 23 1 2 22
M  V30 24 1 4 23
M  V30 25 1 8 24
M  V30 26 1 12 25
M  V30 27 1 13 26
M  V30 28 1 15 27
M  V30 29 1 15 28
M  V30 30 1 15 29
M  V30 END BOND
M  V30 END CTAB
M  END
>  <Dataset>  (651) 
OralDrugs

>  <Ligand_Instance>  (651) 
nan

>  <PDB_ID>  (651) 
nan

>  <Standardized_SMILES>  (651) 
CCn1cc(C(=O)O)c(=O)c2ccc(C)nc21

>  <Name>  (651) 
Nalidixic Acid

>  <Pocket>  (651) 
nan

>  <ATP_Site>  (651) 
nan

>  <Peripheral>  (651) 
nan

>  <Num_H_Atoms_ProtBoundConf>  (651) 
nan

>  <Num_Resolved_Atoms>  (651) 
nan

>  <Num_Not_Resolved_Atoms>  (651) 
nan

$$$$
CHEMBL2219418
     RDKit          3D

  0  0  0  0  0  0  0  0  0  0999 V3000
M  V30 BEGIN CTAB
M  V30 COUNTS 99 103 0 0 0
M  V30 BEGIN ATOM
M  V30 1 C 1.217181 -4.948362 0.198977 0
M  V30 2 C 2.291786 -4.715860 0.982839 0
M  V30 3 C 2.106469 -4.566232 2.432135 0
M  V30 4 N 2.498028 -3.353700 3.021972 0
M  V30 5 C 2.357522 -3.243903 4.423573 0
M  V30 6 C 1.854256 -1.995225 5.012117 0
M  V30 7 C 1.430638 -0.906183 4.092755 0 CFG=2
M  V30 8 C 2.513801 0.113474 3.964767 0
M  V30 9 C 3.564143 -0.127216 3.145184 0
M  V30 10 C 4.503783 0.874188 3.134669 0
M  V30 11 C 4.338459 2.016194 3.918909 0
M  V30 12 C 3.210172 2.163723 4.731559 0
M  V30 13 O 2.988218 3.287879 5.541370 0
M  V30 14 C 2.219762 1.202604 4.797706 0
M  V30 15 O 0.991809 0.947500 5.429644 0
M  V30 16 C 0.337083 -0.104786 4.689394 0 CFG=1
M  V30 17 C -0.541962 0.551169 3.667007 0 CFG=1
M  V30 18 O -1.125515 1.682906 4.116557 0
M  V30 19 C -2.435035 1.898144 4.193591 0
M  V30 20 C -3.297126 1.963920 3.001096 0
M  V30 21 O -3.448861 0.941953 2.150669 0
M  V30 22 C -4.031279 -0.226313 2.604801 0
M  V30 23 C -4.166703 -1.247838 1.493068 0
M  V30 24 O -2.959775 -1.604749 0.915645 0
M  V30 25 C -3.195240 -2.527126 -0.100646 0
M  V30 26 C -1.923262 -2.932670 -0.801727 0
M  V30 27 O -1.305807 -1.797396 -1.378869 0
M  V30 28 C -0.148261 -2.109912 -2.043665 0
M  V30 29 C 0.572792 -0.966795 -2.667481 0
M  V30 30 O -0.171810 -0.283956 -3.613945 0
M  V30 31 C 0.574706 0.754950 -4.129220 0
M  V30 32 C -0.181912 1.571746 -5.185931 0
M  V30 33 O -1.305207 2.127520 -4.699946 0
M  V30 34 C -2.008924 2.952991 -5.512578 0
M  V30 35 C -2.513192 2.325650 -6.768179 0
M  V30 36 O -1.524250 1.851178 -7.579547 0
M  V30 37 C -1.988704 1.297501 -8.743447 0
M  V30 38 C -2.915467 0.119769 -8.556878 0
M  V30 39 O -2.315739 -0.904437 -7.878390 0
M  V30 40 C -1.206885 -1.422462 -8.489602 0
M  V30 41 C 0.293766 0.921270 2.454394 0
M  V30 42 C 0.794948 -0.320922 1.789446 0
M  V30 43 C 1.151342 -1.431282 2.722004 0 CFG=2
M  V30 44 O 0.129494 -2.405687 2.753571 0
M  V30 45 C 2.380469 -2.150870 2.262205 0 CFG=1
M  V30 46 C 3.652627 -1.345824 2.337218 0
M  V30 47 H 0.452113 -4.955086 0.959455 0
M  V30 48 H 1.575701 -5.027537 -0.819201 0
M  V30 49 H 3.362968 -4.605258 0.734520 0
M  V30 50 H 2.720260 -5.383468 2.918175 0
M  V30 51 H 1.064161 -4.813482 2.746060 0
M  V30 52 H 3.350108 -3.560195 4.868172 0
M  V30 53 H 1.677502 -4.090001 4.745049 0
M  V30 54 H 1.053069 -2.202209 5.789558 0
M  V30 55 H 2.684735 -1.569560 5.653858 0
M  V30 56 H 5.389645 0.787392 2.513073 0
M  V30 57 H 5.066642 2.842186 3.940301 0
M  V30 58 H 2.759803 4.168745 5.069642 0
M  V30 59 H -0.231765 -0.670100 5.455588 0
M  V30 60 H -1.321258 -0.190613 3.390333 0
M  V30 61 H -2.910668 1.205557 4.980595 0
M  V30 62 H -2.567485 2.910002 4.719571 0
M  V30 63 H -4.347687 2.205093 3.403078 0
M  V30 64 H -3.101160 2.891419 2.379862 0
M  V30 65 H -3.597302 -0.655102 3.500740 0
M  V30 66 H -5.096896 0.028881 2.889195 0
M  V30 67 H -4.796115 -0.799602 0.697846 0
M  V30 68 H -4.621208 -2.190244 1.859689 0
M  V30 69 H -3.642812 -3.410619 0.356522 0
M  V30 70 H -3.870775 -2.047922 -0.829528 0
M  V30 71 H -1.180405 -3.362787 -0.092395 0
M  V30 72 H -2.102365 -3.718563 -1.553730 0
M  V30 73 H -0.333368 -2.859814 -2.839288 0
M  V30 74 H 0.546281 -2.586786 -1.312628 0
M  V30 75 H 1.487881 -1.391258 -3.171421 0
M  V30 76 H 0.979837 -0.228089 -1.946099 0
M  V30 77 H 1.003770 1.426300 -3.371597 0
M  V30 78 H 1.428188 0.301745 -4.703154 0
M  V30 79 H -0.410011 0.865538 -6.026914 0
M  V30 80 H 0.525965 2.346823 -5.539150 0
M  V30 81 H -2.836045 3.493333 -4.963127 0
M  V30 82 H -1.369013 3.835087 -5.868455 0
M  V30 83 H -3.210350 1.490877 -6.487400 0
M  V30 84 H -3.123796 3.066915 -7.353677 0
M  V30 85 H -1.124501 0.948351 -9.347186 0
M  V30 86 H -2.498321 2.074987 -9.378361 0
M  V30 87 H -3.862622 0.399653 -8.034101 0
M  V30 88 H -3.195727 -0.251161 -9.592106 0
M  V30 89 H -1.540585 -1.795043 -9.501358 0
M  V30 90 H -0.855748 -2.345349 -7.952967 0
M  V30 91 H -0.351751 -0.732282 -8.595317 0
M  V30 92 H -0.355963 1.499920 1.719419 0
M  V30 93 H 1.077876 1.622381 2.721833 0
M  V30 94 H -0.004553 -0.679973 1.129509 0
M  V30 95 H 1.718351 -0.042505 1.230911 0
M  V30 96 H -0.286019 -2.457929 3.650146 0
M  V30 97 H 2.237526 -2.420955 1.195980 0
M  V30 98 H 4.475793 -1.965764 2.788209 0
M  V30 99 H 4.014711 -1.042405 1.312631 0
M  V30 END ATOM
M  V30 BEGIN BOND
M  V30 1 2 1 2
M  V30 2 1 2 3
M  V30 3 1 3 4
M  V30 4 1 4 5
M  V30 5 1 5 6
M  V30 6 1 7 6 CFG=1
M  V30 7 1 7 8
M  V30 8 2 8 9
M  V30 9 1 9 10
M  V30 10 2 10 11
M  V30 11 1 11 12
M  V30 12 1 12 13
M  V30 13 2 12 14
M  V30 14 1 14 15
M  V30 15 1 15 16
M  V30 16 1 16 17
M  V30 17 1 17 18
M  V30 18 1 18 19
M  V30 19 1 19 20
M  V30 20 1 20 21
M  V30 21 1 21 22
M  V30 22 1 22 23
M  V30 23 1 23 24
M  V30 24 1 24 25
M  V30 25 1 25 26
M  V30 26 1 26 27
M  V30 27 1 27 28
M  V30 28 1 28 29
M  V30 29 1 29 30
M  V30 30 1 30 31
M  V30 31 1 31 32
M  V30 32 1 32 33
M  V30 33 1 33 34
M  V30 34 1 34 35
M  V30 35 1 35 36
M  V30 36 1 36 37
M  V30 37 1 37 38
M  V30 38 1 38 39
M  V30 39 1 39 40
M  V30 40 1 17 41
M  V30 41 1 41 42
M  V30 42 1 42 43
M  V30 43 1 43 44 CFG=1
M  V30 44 1 43 45
M  V30 45 1 45 46
M  V30 46 1 45 4
M  V30 47 1 16 7
M  V30 48 1 43 7
M  V30 49 1 14 8
M  V30 50 1 46 9
M  V30 51 1 1 47
M  V30 52 1 1 48
M  V30 53 1 2 49
M  V30 54 1 3 50
M  V30 55 1 3 51
M  V30 56 1 5 52
M  V30 57 1 5 53
M  V30 58 1 6 54
M  V30 59 1 6 55
M  V30 60 1 10 56
M  V30 61 1 11 57
M  V30 62 1 13 58
M  V30 63 1 16 59 CFG=1
M  V30 64 1 17 60 CFG=3
M  V30 65 1 19 61
M  V30 66 1 19 62
M  V30 67 1 20 63
M  V30 68 1 20 64
M  V30 69 1 22 65
M  V30 70 1 22 66
M  V30 71 1 23 67
M  V30 72 1 23 68
M  V30 73 1 25 69
M  V30 74 1 25 70
M  V30 75 1 26 71
M  V30 76 1 26 72
M  V30 77 1 28 73
M  V30 78 1 28 74
M  V30 79 1 29 75
M  V30 80 1 29 76
M  V30 81 1 31 77
M  V30 82 1 31 78
M  V30 83 1 32 79
M  V30 84 1 32 80
M  V30 85 1 34 81
M  V30 86 1 34 82
M  V30 87 1 35 83
M  V30 88 1 35 84
M  V30 89 1 37 85
M  V30 90 1 37 86
M  V30 91 1 38 87
M  V30 92 1 38 88
M  V30 93 1 40 89
M  V30 94 1 40 90
M  V30 95 1 40 91
M  V30 96 1 41 92
M  V30 97 1 41 93
M  V30 98 1 42 94
M  V30 99 1 42 95
M  V30 100 1 44 96
M  V30 101 1 45 97 CFG=3
M  V30 102 1 46 98
M  V30 103 1 46 99
M  V30 END BOND
M  V30 END CTAB
M  END
>  <Dataset>  (652) 
OralDrugs

>  <Ligand_Instance>  (652) 
nan

>  <PDB_ID>  (652) 
nan

>  <Standardized_SMILES>  (652) 
C=CCN1CC[C@]23c4c5ccc(O)c4O[C@H]2[C@@H](OCCOCCOCCOCCOCCOCCOCCOC)CC[C@@]3(O)[C@H]1C5

>  <Name>  (652) 
Naloxegol

>  <Pocket>  (652) 
nan

>  <ATP_Site>  (652) 
nan

>  <Peripheral>  (652) 
nan

>  <Num_H_Atoms_ProtBoundConf>  (652) 
nan

>  <Num_Resolved_Atoms>  (652) 
nan

>  <Num_Not_Resolved_Atoms>  (652) 
nan

$$$$
CHEMBL80
     RDKit          3D

  0  0  0  0  0  0  0  0  0  0999 V3000
M  V30 BEGIN CTAB
M  V30 COUNTS 45 49 0 0 0
M  V30 BEGIN ATOM
M  V30 1 C -4.404015 -3.612474 0.694299 0
M  V30 2 C -3.086670 -3.516335 0.532012 0
M  V30 3 C -2.101348 -2.824351 1.374975 0
M  V30 4 N -1.380944 -1.784318 0.667179 0
M  V30 5 C -0.517462 -2.325619 -0.330119 0
M  V30 6 C 0.637294 -1.494314 -0.749823 0
M  V30 7 C 1.301067 -0.721456 0.328992 0 CFG=2
M  V30 8 C 1.008603 0.723079 0.107307 0
M  V30 9 C -0.123011 1.318457 0.571462 0
M  V30 10 C -0.243599 2.641223 0.288616 0
M  V30 11 C 0.728483 3.347809 -0.431839 0
M  V30 12 C 1.863939 2.659857 -0.873730 0
M  V30 13 O 2.895502 3.261660 -1.598964 0
M  V30 14 C 2.027508 1.322974 -0.610569 0
M  V30 15 O 2.927426 0.290007 -0.832446 0
M  V30 16 C 2.797984 -0.668782 0.232153 0 CFG=1
M  V30 17 C 3.318169 0.026958 1.434077 0
M  V30 18 O 4.549285 0.074335 1.393659 0
M  V30 19 C 2.463901 0.585829 2.530088 0
M  V30 20 C 1.293457 -0.291333 2.810105 0
M  V30 21 C 0.746239 -1.058629 1.666871 0 CFG=2
M  V30 22 O 0.908124 -2.435400 1.900514 0
M  V30 23 C -0.768255 -0.847297 1.565237 0 CFG=1
M  V30 24 C -1.153129 0.579847 1.330244 0
M  V30 25 H -4.808118 -3.111215 1.569474 0
M  V30 26 H -4.912237 -4.177067 -0.065449 0
M  V30 27 H -2.518503 -3.953717 -0.283773 0
M  V30 28 H -1.349594 -3.536286 1.781141 0
M  V30 29 H -2.564805 -2.335218 2.275208 0
M  V30 30 H -1.147228 -2.549088 -1.217589 0
M  V30 31 H -0.166847 -3.326198 0.018993 0
M  V30 32 H 1.418946 -2.176957 -1.179903 0
M  V30 33 H 0.334948 -0.851545 -1.612471 0
M  V30 34 H -1.104533 3.223288 0.606670 0
M  V30 35 H 0.651813 4.398101 -0.666149 0
M  V30 36 H 3.536901 3.916432 -1.157813 0
M  V30 37 H 3.285501 -1.607535 -0.002600 0
M  V30 38 H 2.193098 1.648891 2.339770 0
M  V30 39 H 3.121703 0.630484 3.430690 0
M  V30 40 H 1.572762 -0.990996 3.649794 0
M  V30 41 H 0.499247 0.359044 3.262778 0
M  V30 42 H 1.730231 -2.754015 1.415586 0
M  V30 43 H -1.129018 -1.104518 2.604184 0
M  V30 44 H -2.067973 0.572105 0.696622 0
M  V30 45 H -1.436009 1.101279 2.254680 0
M  V30 END ATOM
M  V30 BEGIN BOND
M  V30 1 2 1 2
M  V30 2 1 2 3
M  V30 3 1 3 4
M  V30 4 1 4 5
M  V30 5 1 5 6
M  V30 6 1 7 6 CFG=3
M  V30 7 1 7 8
M  V30 8 2 8 9
M  V30 9 1 9 10
M  V30 10 2 10 11
M  V30 11 1 11 12
M  V30 12 1 12 13
M  V30 13 2 12 14
M  V30 14 1 14 15
M  V30 15 1 15 16
M  V30 16 1 16 17
M  V30 17 2 17 18
M  V30 18 1 17 19
M  V30 19 1 19 20
M  V30 20 1 20 21
M  V30 21 1 21 22 CFG=1
M  V30 22 1 21 23
M  V30 23 1 23 24
M  V30 24 1 23 4
M  V30 25 1 16 7
M  V30 26 1 21 7
M  V30 27 1 14 8
M  V30 28 1 24 9
M  V30 29 1 1 25
M  V30 30 1 1 26
M  V30 31 1 2 27
M  V30 32 1 3 28
M  V30 33 1 3 29
M  V30 34 1 5 30
M  V30 35 1 5 31
M  V30 36 1 6 32
M  V30 37 1 6 33
M  V30 38 1 10 34
M  V30 39 1 11 35
M  V30 40 1 13 36
M  V30 41 1 16 37 CFG=3
M  V30 42 1 19 38
M  V30 43 1 19 39
M  V30 44 1 20 40
M  V30 45 1 20 41
M  V30 46 1 22 42
M  V30 47 1 23 43 CFG=1
M  V30 48 1 24 44
M  V30 49 1 24 45
M  V30 END BOND
M  V30 END CTAB
M  END
>  <Dataset>  (653) 
OralDrugs

>  <Ligand_Instance>  (653) 
nan

>  <PDB_ID>  (653) 
nan

>  <Standardized_SMILES>  (653) 
C=CCN1CC[C@]23c4c5ccc(O)c4O[C@H]2C(=O)CC[C@@]3(O)[C@H]1C5

>  <Name>  (653) 
Naloxone

>  <Pocket>  (653) 
nan

>  <ATP_Site>  (653) 
nan

>  <Peripheral>  (653) 
nan

>  <Num_H_Atoms_ProtBoundConf>  (653) 
nan

>  <Num_Resolved_Atoms>  (653) 
nan

>  <Num_Not_Resolved_Atoms>  (653) 
nan

$$$$
CHEMBL19019
     RDKit          3D

  0  0  0  0  0  0  0  0  0  0999 V3000
M  V30 BEGIN CTAB
M  V30 COUNTS 48 53 0 0 0
M  V30 BEGIN ATOM
M  V30 1 O 2.043846 0.427041 4.412787 0
M  V30 2 C 1.563648 -0.527764 3.782632 0
M  V30 3 C 0.187233 -0.998455 4.084351 0
M  V30 4 C -0.759147 -0.719841 2.936065 0
M  V30 5 C -0.208565 -1.328709 1.671883 0 CFG=1
M  V30 6 O -0.550577 -2.677940 1.658688 0
M  V30 7 C -0.850372 -0.734488 0.432195 0 CFG=1
M  V30 8 C -0.725766 0.779923 0.354669 0
M  V30 9 C 0.646635 1.144959 0.721074 0
M  V30 10 C 1.026831 2.459608 0.514187 0
M  V30 11 C 2.316523 2.787392 0.907424 0
M  V30 12 C 3.194614 1.867432 1.479046 0
M  V30 13 O 4.491579 2.174102 1.882505 0
M  V30 14 C 2.818416 0.559388 1.686324 0
M  V30 15 C 1.529156 0.270097 1.279871 0
M  V30 16 C 1.234661 -1.185796 1.509208 0 CFG=2
M  V30 17 C 1.674612 -1.979364 0.343324 0
M  V30 18 C 0.809705 -1.957656 -0.834496 0
M  V30 19 N -0.431206 -1.244754 -0.804238 0
M  V30 20 C -1.399805 -1.784504 -1.696259 0
M  V30 21 C -2.606240 -1.009143 -2.036812 0
M  V30 22 C -3.696736 -0.490558 -1.249100 0
M  V30 23 C -3.933321 -1.766932 -2.086488 0
M  V30 24 C 2.124637 -1.368593 2.700913 0 CFG=1
M  V30 25 O 3.287884 -0.654521 2.191308 0
M  V30 26 H -0.210521 -0.438006 4.963146 0
M  V30 27 H 0.205887 -2.086560 4.326494 0
M  V30 28 H -1.692072 -1.270296 3.175890 0
M  V30 29 H -1.000626 0.340602 2.871575 0
M  V30 30 H -1.485978 -2.863826 1.853062 0
M  V30 31 H -1.925834 -0.963827 0.561757 0
M  V30 32 H -1.005809 1.082883 -0.654962 0
M  V30 33 H -1.483263 1.214698 1.073417 0
M  V30 34 H 0.400950 3.204015 0.085477 0
M  V30 35 H 2.704506 3.808362 0.780877 0
M  V30 36 H 5.190073 2.154467 1.135733 0
M  V30 37 H 1.835760 -3.034852 0.697570 0
M  V30 38 H 2.726502 -1.652493 0.069986 0
M  V30 39 H 0.611334 -2.989841 -1.189502 0
M  V30 40 H 1.384254 -1.499061 -1.705249 0
M  V30 41 H -1.759909 -2.809119 -1.324442 0
M  V30 42 H -0.837984 -2.019627 -2.655074 0
M  V30 43 H -2.451584 -0.397085 -3.028524 0
M  V30 44 H -4.283526 0.385717 -1.693264 0
M  V30 45 H -3.871908 -0.600187 -0.184681 0
M  V30 46 H -4.574324 -1.695679 -2.973930 0
M  V30 47 H -3.942088 -2.713269 -1.488230 0
M  V30 48 H 2.421943 -2.365150 2.956535 0
M  V30 END ATOM
M  V30 BEGIN BOND
M  V30 1 2 1 2
M  V30 2 1 2 3
M  V30 3 1 3 4
M  V30 4 1 4 5
M  V30 5 1 5 6 CFG=1
M  V30 6 1 5 7
M  V30 7 1 7 8
M  V30 8 1 8 9
M  V30 9 2 9 10
M  V30 10 1 10 11
M  V30 11 2 11 12
M  V30 12 1 12 13
M  V30 13 1 12 14
M  V30 14 2 14 15
M  V30 15 1 15 16
M  V30 16 1 16 17 CFG=3
M  V30 17 1 17 18
M  V30 18 1 18 19
M  V30 19 1 19 20
M  V30 20 1 20 21
M  V30 21 1 21 22
M  V30 22 1 22 23
M  V30 23 1 16 24
M  V30 24 1 24 25
M  V30 25 1 24 2
M  V30 26 1 16 5
M  V30 27 1 23 21
M  V30 28 1 19 7
M  V30 29 1 15 9
M  V30 30 1 25 14
M  V30 31 1 3 26
M  V30 32 1 3 27
M  V30 33 1 4 28
M  V30 34 1 4 29
M  V30 35 1 6 30
M  V30 36 1 7 31 CFG=1
M  V30 37 1 8 32
M  V30 38 1 8 33
M  V30 39 1 10 34
M  V30 40 1 11 35
M  V30 41 1 13 36
M  V30 42 1 17 37
M  V30 43 1 17 38
M  V30 44 1 18 39
M  V30 45 1 18 40
M  V30 46 1 20 41
M  V30 47 1 20 42
M  V30 48 1 21 43
M  V30 49 1 22 44
M  V30 50 1 22 45
M  V30 51 1 23 46
M  V30 52 1 23 47
M  V30 53 1 24 48 CFG=1
M  V30 END BOND
M  V30 END CTAB
M  END
>  <Dataset>  (654) 
OralDrugs

>  <Ligand_Instance>  (654) 
nan

>  <PDB_ID>  (654) 
nan

>  <Standardized_SMILES>  (654) 
O=C1CC[C@@]2(O)[C@H]3Cc4ccc(O)c5c4[C@@]2(CCN3CC2CC2)[C@H]1O5

>  <Name>  (654) 
Naltrexone

>  <Pocket>  (654) 
nan

>  <ATP_Site>  (654) 
nan

>  <Peripheral>  (654) 
nan

>  <Num_H_Atoms_ProtBoundConf>  (654) 
nan

>  <Num_Resolved_Atoms>  (654) 
nan

>  <Num_Not_Resolved_Atoms>  (654) 
nan

$$$$
CHEMBL154
     RDKit          3D

  0  0  0  0  0  0  0  0  0  0999 V3000
M  V30 BEGIN CTAB
M  V30 COUNTS 31 32 0 0 0
M  V30 BEGIN ATOM
M  V30 1 C -2.517378 -3.654408 4.607743 0
M  V30 2 O -2.216011 -2.310100 4.257724 0
M  V30 3 C -1.461282 -2.104264 3.105244 0
M  V30 4 C -1.015290 -3.149960 2.322300 0
M  V30 5 C -0.277492 -2.803291 1.208372 0
M  V30 6 C -0.003318 -1.486132 0.898169 0
M  V30 7 C 0.732160 -1.115004 -0.210024 0
M  V30 8 C 1.005316 0.201336 -0.518713 0
M  V30 9 C 1.806320 0.518221 -1.733250 0 CFG=2
M  V30 10 C 3.105646 1.218651 -1.407975 0
M  V30 11 C 1.029480 1.384843 -2.656843 0
M  V30 12 O -0.142178 1.837362 -2.520143 0
M  V30 13 O 1.751892 1.707501 -3.818155 0
M  V30 14 C 0.542055 1.220109 0.288664 0
M  V30 15 C -0.200281 0.864629 1.408855 0
M  V30 16 C -0.471742 -0.451685 1.714920 0
M  V30 17 C -1.215168 -0.772182 2.839859 0
M  V30 18 H -1.545345 -4.219754 4.641613 0
M  V30 19 H -2.970273 -3.722428 5.616040 0
M  V30 20 H -3.143172 -4.139241 3.831216 0
M  V30 21 H -1.243727 -4.175622 2.587021 0
M  V30 22 H 0.106458 -3.582513 0.544905 0
M  V30 23 H 1.073420 -1.948732 -0.812038 0
M  V30 24 H 2.078874 -0.437598 -2.239325 0
M  V30 25 H 2.917194 2.302153 -1.252623 0
M  V30 26 H 3.673280 0.732244 -0.601451 0
M  V30 27 H 3.707682 1.160579 -2.358948 0
M  V30 28 H 1.463603 2.481917 -4.434252 0
M  V30 29 H 0.731803 2.251098 0.084423 0
M  V30 30 H -0.589465 1.629796 2.079206 0
M  V30 31 H -1.558423 0.038161 3.442928 0
M  V30 END ATOM
M  V30 BEGIN BOND
M  V30 1 1 1 2
M  V30 2 1 2 3
M  V30 3 2 3 4
M  V30 4 1 4 5
M  V30 5 2 5 6
M  V30 6 1 6 7
M  V30 7 2 7 8
M  V30 8 1 8 9
M  V30 9 1 9 10
M  V30 10 1 9 11
M  V30 11 2 11 12
M  V30 12 1 11 13
M  V30 13 1 8 14
M  V30 14 2 14 15
M  V30 15 1 15 16
M  V30 16 2 16 17
M  V30 17 1 17 3
M  V30 18 1 16 6
M  V30 19 1 1 18
M  V30 20 1 1 19
M  V30 21 1 1 20
M  V30 22 1 4 21
M  V30 23 1 5 22
M  V30 24 1 7 23
M  V30 25 1 9 24 CFG=3
M  V30 26 1 10 25
M  V30 27 1 10 26
M  V30 28 1 10 27
M  V30 29 1 13 28
M  V30 30 1 14 29
M  V30 31 1 15 30
M  V30 32 1 17 31
M  V30 END BOND
M  V30 END CTAB
M  END
>  <Dataset>  (655) 
OralDrugs

>  <Ligand_Instance>  (655) 
nan

>  <PDB_ID>  (655) 
nan

>  <Standardized_SMILES>  (655) 
COc1ccc2cc([C@H](C)C(=O)O)ccc2c1

>  <Name>  (655) 
Naproxen

>  <Pocket>  (655) 
nan

>  <ATP_Site>  (655) 
nan

>  <Peripheral>  (655) 
nan

>  <Num_H_Atoms_ProtBoundConf>  (655) 
nan

>  <Num_Resolved_Atoms>  (655) 
nan

>  <Num_Not_Resolved_Atoms>  (655) 
nan

$$$$
CHEMBL1278
     RDKit          3D

  0  0  0  0  0  0  0  0  0  0999 V3000
M  V30 BEGIN CTAB
M  V30 COUNTS 48 50 0 0 0
M  V30 BEGIN ATOM
M  V30 1 C 0.514750 -4.866250 0.959866 0
M  V30 2 N 0.608672 -5.183952 -0.444291 0
M  V30 3 S 2.019368 -4.491002 -1.128883 0
M  V30 4 O 2.133254 -4.849190 -2.579498 0
M  V30 5 O 3.228406 -4.979884 -0.366489 0
M  V30 6 C 1.999211 -2.716001 -1.011223 0
M  V30 7 C 0.804885 -2.137740 -1.740137 0
M  V30 8 C 0.860402 -0.659349 -1.595551 0
M  V30 9 C 1.546935 0.056063 -2.558938 0
M  V30 10 C 1.602834 1.425599 -2.431761 0
M  V30 11 C 0.988532 2.051498 -1.371246 0
M  V30 12 N 0.913576 3.333990 -1.049681 0
M  V30 13 C 0.213677 3.454048 0.067140 0
M  V30 14 C -0.226213 2.214623 0.559750 0
M  V30 15 C -1.028766 1.899629 1.759504 0
M  V30 16 C -0.202620 1.566715 2.980059 0
M  V30 17 C -1.220220 1.208815 4.072873 0
M  V30 18 N -1.933459 0.038701 3.745438 0
M  V30 19 C -1.609859 -1.125514 4.510321 0
M  V30 20 C -2.286296 -0.186676 2.396836 0
M  V30 21 C -2.209021 1.024194 1.534354 0
M  V30 22 C 0.290190 1.351938 -0.387070 0
M  V30 23 C 0.253668 -0.010104 -0.543236 0
M  V30 24 H -0.495150 -4.460483 1.192711 0
M  V30 25 H 0.689299 -5.787275 1.556005 0
M  V30 26 H 1.285043 -4.118778 1.204349 0
M  V30 27 H -0.236141 -4.848611 -0.935236 0
M  V30 28 H 2.913627 -2.295963 -1.439584 0
M  V30 29 H 1.913483 -2.403158 0.063249 0
M  V30 30 H -0.151939 -2.519636 -1.331063 0
M  V30 31 H 0.888796 -2.407359 -2.832810 0
M  V30 32 H 2.030070 -0.436596 -3.393191 0
M  V30 33 H 2.131808 2.023152 -3.166976 0
M  V30 34 H 1.331557 4.118480 -1.580525 0
M  V30 35 H -0.006155 4.410331 0.564094 0
M  V30 36 H -1.467789 2.910591 2.049922 0
M  V30 37 H 0.316214 2.464197 3.381444 0
M  V30 38 H 0.558698 0.804602 2.835182 0
M  V30 39 H -1.955937 2.065142 4.033874 0
M  V30 40 H -0.766824 1.120554 5.061283 0
M  V30 41 H -1.948975 -0.953016 5.552941 0
M  V30 42 H -2.171304 -1.987589 4.101467 0
M  V30 43 H -0.529035 -1.365589 4.564056 0
M  V30 44 H -3.369489 -0.516991 2.423723 0
M  V30 45 H -1.795538 -1.102123 1.949884 0
M  V30 46 H -3.195513 1.571029 1.639108 0
M  V30 47 H -2.220699 0.735799 0.441299 0
M  V30 48 H -0.265989 -0.608073 0.181382 0
M  V30 END ATOM
M  V30 BEGIN BOND
M  V30 1 1 1 2
M  V30 2 1 2 3
M  V30 3 2 3 4
M  V30 4 2 3 5
M  V30 5 1 3 6
M  V30 6 1 6 7
M  V30 7 1 7 8
M  V30 8 2 8 9
M  V30 9 1 9 10
M  V30 10 2 10 11
M  V30 11 1 11 12
M  V30 12 1 12 13
M  V30 13 2 13 14
M  V30 14 1 14 15
M  V30 15 1 15 16
M  V30 16 1 16 17
M  V30 17 1 17 18
M  V30 18 1 18 19
M  V30 19 1 18 20
M  V30 20 1 20 21
M  V30 21 1 14 22
M  V30 22 2 22 23
M  V30 23 1 23 8
M  V30 24 1 22 11
M  V30 25 1 21 15
M  V30 26 1 1 24
M  V30 27 1 1 25
M  V30 28 1 1 26
M  V30 29 1 2 27
M  V30 30 1 6 28
M  V30 31 1 6 29
M  V30 32 1 7 30
M  V30 33 1 7 31
M  V30 34 1 9 32
M  V30 35 1 10 33
M  V30 36 1 12 34
M  V30 37 1 13 35
M  V30 38 1 15 36
M  V30 39 1 16 37
M  V30 40 1 16 38
M  V30 41 1 17 39
M  V30 42 1 17 40
M  V30 43 1 19 41
M  V30 44 1 19 42
M  V30 45 1 19 43
M  V30 46 1 20 44
M  V30 47 1 20 45
M  V30 48 1 21 46
M  V30 49 1 21 47
M  V30 50 1 23 48
M  V30 END BOND
M  V30 END CTAB
M  END
>  <Dataset>  (656) 
OralDrugs

>  <Ligand_Instance>  (656) 
nan

>  <PDB_ID>  (656) 
nan

>  <Standardized_SMILES>  (656) 
CNS(=O)(=O)CCc1ccc2[nH]cc(C3CCN(C)CC3)c2c1

>  <Name>  (656) 
Naratriptan

>  <Pocket>  (656) 
nan

>  <ATP_Site>  (656) 
nan

>  <Peripheral>  (656) 
nan

>  <Num_H_Atoms_ProtBoundConf>  (656) 
nan

>  <Num_Resolved_Atoms>  (656) 
nan

>  <Num_Not_Resolved_Atoms>  (656) 
nan

$$$$
CHEMBL783
     RDKit          3D

  0  0  0  0  0  0  0  0  0  0999 V3000
M  V30 BEGIN CTAB
M  V30 COUNTS 50 51 0 0 0
M  V30 BEGIN ATOM
M  V30 1 C -1.581636 -5.306863 -0.333717 0
M  V30 2 C -0.143014 -4.894520 -0.529461 0
M  V30 3 C 0.631491 -5.320418 0.682845 0
M  V30 4 C -0.050296 -3.428842 -0.831428 0 CFG=1
M  V30 5 C -0.603714 -2.541596 0.249181 0
M  V30 6 C 0.567385 -2.141145 1.119783 0
M  V30 7 C 1.222351 -0.974821 0.373401 0 CFG=2
M  V30 8 C 0.171805 0.070995 0.187831 0
M  V30 9 O -0.197116 0.481351 -0.961844 0
M  V30 10 N -0.418009 0.607844 1.349547 0
M  V30 11 C -1.433492 1.620163 1.135534 0 CFG=2
M  V30 12 C -1.115144 2.863279 1.932166 0
M  V30 13 C 0.177372 3.480014 1.583785 0
M  V30 14 C 1.328825 3.095449 2.253420 0
M  V30 15 C 2.601809 3.605333 2.012664 0
M  V30 16 C 2.696262 4.574848 1.017250 0
M  V30 17 C 1.574728 4.972085 0.341237 0
M  V30 18 C 0.304929 4.451955 0.593488 0
M  V30 19 C -2.695564 1.066131 1.729478 0
M  V30 20 O -3.804885 1.676246 1.730913 0
M  V30 21 O -3.110758 -0.084535 2.384428 0
M  V30 22 C 1.578359 -1.521138 -0.972514 0
M  V30 23 C 1.339649 -2.988631 -1.140436 0
M  V30 24 H -1.674250 -6.410860 -0.287764 0
M  V30 25 H -1.920444 -4.935127 0.657041 0
M  V30 26 H -2.193674 -4.868566 -1.149836 0
M  V30 27 H 0.292527 -5.423474 -1.400129 0
M  V30 28 H 1.727136 -5.197952 0.554346 0
M  V30 29 H 0.236040 -4.961357 1.639201 0
M  V30 30 H 0.499279 -6.441978 0.736532 0
M  V30 31 H -0.685621 -3.284832 -1.755989 0
M  V30 32 H -1.439811 -2.959222 0.819031 0
M  V30 33 H -1.021292 -1.633841 -0.258667 0
M  V30 34 H 0.294886 -1.878227 2.146026 0
M  V30 35 H 1.372931 -2.903031 1.160030 0
M  V30 36 H 2.083933 -0.579181 0.952632 0
M  V30 37 H -0.207472 0.360845 2.328275 0
M  V30 38 H -1.617769 1.844864 0.072995 0
M  V30 39 H -1.074583 2.558712 2.996412 0
M  V30 40 H -1.963590 3.573559 1.845571 0
M  V30 41 H 1.241373 2.341236 3.024550 0
M  V30 42 H 3.431461 3.231391 2.596779 0
M  V30 43 H 3.677695 4.982412 0.816463 0
M  V30 44 H 1.657460 5.725789 -0.430479 0
M  V30 45 H -0.584012 4.761049 0.063708 0
M  V30 46 H -3.707490 -0.786280 1.947226 0
M  V30 47 H 1.105694 -0.967410 -1.808891 0
M  V30 48 H 2.676940 -1.361654 -1.117033 0
M  V30 49 H 2.138170 -3.601760 -0.647237 0
M  V30 50 H 1.514673 -3.189728 -2.239077 0
M  V30 END ATOM
M  V30 BEGIN BOND
M  V30 1 1 1 2
M  V30 2 1 2 3
M  V30 3 1 2 4
M  V30 4 1 4 5
M  V30 5 1 5 6
M  V30 6 1 6 7
M  V30 7 1 7 8
M  V30 8 2 8 9
M  V30 9 1 8 10
M  V30 10 1 10 11
M  V30 11 1 11 12
M  V30 12 1 12 13
M  V30 13 2 13 14
M  V30 14 1 14 15
M  V30 15 2 15 16
M  V30 16 1 16 17
M  V30 17 2 17 18
M  V30 18 1 11 19
M  V30 19 2 19 20
M  V30 20 1 19 21
M  V30 21 1 7 22
M  V30 22 1 22 23
M  V30 23 1 23 4
M  V30 24 1 18 13
M  V30 25 1 1 24
M  V30 26 1 1 25
M  V30 27 1 1 26
M  V30 28 1 2 27
M  V30 29 1 3 28
M  V30 30 1 3 29
M  V30 31 1 3 30
M  V30 32 1 4 31 CFG=3
M  V30 33 1 5 32
M  V30 34 1 5 33
M  V30 35 1 6 34
M  V30 36 1 6 35
M  V30 37 1 7 36 CFG=1
M  V30 38 1 10 37
M  V30 39 1 11 38 CFG=3
M  V30 40 1 12 39
M  V30 41 1 12 40
M  V30 42 1 14 41
M  V30 43 1 15 42
M  V30 44 1 16 43
M  V30 45 1 17 44
M  V30 46 1 18 45
M  V30 47 1 21 46
M  V30 48 1 22 47
M  V30 49 1 22 48
M  V30 50 1 23 49
M  V30 51 1 23 50
M  V30 END BOND
M  V30 END CTAB
M  END
>  <Dataset>  (657) 
OralDrugs

>  <Ligand_Instance>  (657) 
nan

>  <PDB_ID>  (657) 
nan

>  <Standardized_SMILES>  (657) 
CC(C)[C@H]1CC[C@H](C(=O)N[C@H](Cc2ccccc2)C(=O)O)CC1

>  <Name>  (657) 
Nateglinide

>  <Pocket>  (657) 
nan

>  <ATP_Site>  (657) 
nan

>  <Peripheral>  (657) 
nan

>  <Num_H_Atoms_ProtBoundConf>  (657) 
nan

>  <Num_Resolved_Atoms>  (657) 
nan

>  <Num_Not_Resolved_Atoms>  (657) 
nan

$$$$
CHEMBL434394
     RDKit          3D

  0  0  0  0  0  0  0  0  0  0999 V3000
M  V30 BEGIN CTAB
M  V30 COUNTS 54 57 0 0 0
M  V30 BEGIN ATOM
M  V30 1 O -1.399684 -1.022735 2.653829 0
M  V30 2 C -0.851602 -1.581750 1.529200 0
M  V30 3 C 0.538382 -2.088776 1.802080 0
M  V30 4 N 1.309170 -0.929100 2.254029 0
M  V30 5 C 2.734560 -1.260144 2.329993 0
M  V30 6 C 3.524170 -0.088404 2.822960 0
M  V30 7 O 3.134759 0.209739 4.134454 0
M  V30 8 C 3.105906 1.181871 2.039503 0
M  V30 9 C 3.451454 1.090252 0.599783 0
M  V30 10 C 2.393788 1.434312 -0.381326 0
M  V30 11 C 1.222335 2.117780 0.180018 0
M  V30 12 C 0.367645 2.858921 -0.614782 0
M  V30 13 C -0.754205 3.506827 -0.096734 0
M  V30 14 F -1.630769 4.242970 -0.803831 0
M  V30 15 C -1.041549 3.418357 1.265315 0
M  V30 16 C -0.221763 2.693095 2.103541 0
M  V30 17 C 0.865357 2.082793 1.512031 0
M  V30 18 O 1.722824 1.345716 2.278767 0
M  V30 19 C -1.757893 -2.658648 0.945748 0
M  V30 20 C -3.097547 -2.074413 0.558912 0
M  V30 21 C -3.132284 -1.675930 -0.901598 0
M  V30 22 C -2.860803 -2.884151 -1.751815 0
M  V30 23 C -3.545737 -3.295090 -2.873371 0
M  V30 24 C -3.154265 -4.444253 -3.525028 0
M  V30 25 F -3.889088 -4.767869 -4.621420 0
M  V30 26 C -2.073860 -5.221223 -3.088284 0
M  V30 27 C -1.393050 -4.805674 -1.968540 0
M  V30 28 C -1.789186 -3.641002 -1.305930 0
M  V30 29 O -1.087684 -3.220868 -0.160163 0
M  V30 30 H -1.798594 -0.136790 2.428567 0
M  V30 31 H -0.816771 -0.802596 0.720398 0
M  V30 32 H 0.490746 -2.824695 2.629671 0
M  V30 33 H 1.009122 -2.539601 0.902760 0
M  V30 34 H 0.990952 -0.658282 3.227922 0
M  V30 35 H 3.041540 -1.607953 1.325049 0
M  V30 36 H 2.861731 -2.099270 3.043049 0
M  V30 37 H 4.592407 -0.198096 2.776126 0
M  V30 38 H 2.329738 0.754250 4.151114 0
M  V30 39 H 3.642162 2.012906 2.514525 0
M  V30 40 H 4.376892 1.685280 0.347974 0
M  V30 41 H 3.758687 0.026351 0.367330 0
M  V30 42 H 2.836430 2.097388 -1.175493 0
M  V30 43 H 2.012574 0.537423 -0.948517 0
M  V30 44 H 0.518530 2.974558 -1.672263 0
M  V30 45 H -1.887914 3.890030 1.754003 0
M  V30 46 H -0.405871 2.598378 3.172600 0
M  V30 47 H -1.929657 -3.435871 1.696685 0
M  V30 48 H -3.259668 -1.159199 1.157250 0
M  V30 49 H -3.901418 -2.785723 0.772383 0
M  V30 50 H -4.140469 -1.305565 -1.135367 0
M  V30 51 H -2.368070 -0.893423 -1.111612 0
M  V30 52 H -4.362828 -2.656065 -3.160581 0
M  V30 53 H -1.816717 -6.116636 -3.646922 0
M  V30 54 H -0.571958 -5.402859 -1.645293 0
M  V30 END ATOM
M  V30 BEGIN BOND
M  V30 1 1 1 2
M  V30 2 1 2 3
M  V30 3 1 3 4
M  V30 4 1 4 5
M  V30 5 1 5 6
M  V30 6 1 6 7
M  V30 7 1 6 8
M  V30 8 1 8 9
M  V30 9 1 9 10
M  V30 10 1 10 11
M  V30 11 2 11 12
M  V30 12 1 12 13
M  V30 13 1 13 14
M  V30 14 2 13 15
M  V30 15 1 15 16
M  V30 16 2 16 17
M  V30 17 1 17 18
M  V30 18 1 2 19
M  V30 19 1 19 20
M  V30 20 1 20 21
M  V30 21 1 21 22
M  V30 22 2 22 23
M  V30 23 1 23 24
M  V30 24 1 24 25
M  V30 25 2 24 26
M  V30 26 1 26 27
M  V30 27 2 27 28
M  V30 28 1 28 29
M  V30 29 1 18 8
M  V30 30 1 29 19
M  V30 31 1 17 11
M  V30 32 1 28 22
M  V30 33 1 1 30
M  V30 34 1 2 31
M  V30 35 1 3 32
M  V30 36 1 3 33
M  V30 37 1 4 34
M  V30 38 1 5 35
M  V30 39 1 5 36
M  V30 40 1 6 37
M  V30 41 1 7 38
M  V30 42 1 8 39
M  V30 43 1 9 40
M  V30 44 1 9 41
M  V30 45 1 10 42
M  V30 46 1 10 43
M  V30 47 1 12 44
M  V30 48 1 15 45
M  V30 49 1 16 46
M  V30 50 1 19 47
M  V30 51 1 20 48
M  V30 52 1 20 49
M  V30 53 1 21 50
M  V30 54 1 21 51
M  V30 55 1 23 52
M  V30 56 1 26 53
M  V30 57 1 27 54
M  V30 END BOND
M  V30 END CTAB
M  END
>  <Dataset>  (658) 
OralDrugs

>  <Ligand_Instance>  (658) 
nan

>  <PDB_ID>  (658) 
nan

>  <Standardized_SMILES>  (658) 
OC(CNCC(O)C1CCc2cc(F)ccc2O1)C1CCc2cc(F)ccc2O1

>  <Name>  (658) 
Nebivolol

>  <Pocket>  (658) 
nan

>  <ATP_Site>  (658) 
nan

>  <Peripheral>  (658) 
nan

>  <Num_H_Atoms_ProtBoundConf>  (658) 
nan

>  <Num_Resolved_Atoms>  (658) 
nan

>  <Num_Not_Resolved_Atoms>  (658) 
nan

$$$$
CHEMBL584
     RDKit          3D

  0  0  0  0  0  0  0  0  0  0999 V3000
M  V30 BEGIN CTAB
M  V30 COUNTS 85 88 0 0 0
M  V30 BEGIN ATOM
M  V30 1 C 2.699285 -2.978243 4.044767 0
M  V30 2 C 1.962492 -4.136995 4.550226 0
M  V30 3 C 2.354559 -5.007283 5.535727 0
M  V30 4 O 3.607708 -4.721105 6.088014 0
M  V30 5 C 1.620547 -6.082234 5.980097 0
M  V30 6 C 0.408204 -6.262233 5.364000 0
M  V30 7 C -0.046906 -5.411962 4.355961 0
M  V30 8 C 0.737600 -4.327599 3.934931 0
M  V30 9 C 0.071679 -3.582974 2.862956 0
M  V30 10 O -0.195456 -3.853995 1.673389 0
M  V30 11 N -0.406297 -2.240241 3.172985 0
M  V30 12 C -1.081754 -1.536715 2.053023 0 CFG=1
M  V30 13 C -2.536099 -1.523542 2.585526 0
M  V30 14 S -3.724735 -0.798968 1.535109 0
M  V30 15 C -4.175929 -1.671177 0.072552 0
M  V30 16 C -5.272497 -2.513234 0.370456 0
M  V30 17 C -5.848883 -3.316514 -0.611487 0
M  V30 18 C -5.342273 -3.293807 -1.904792 0
M  V30 19 C -4.284893 -2.481661 -2.189141 0
M  V30 20 C -3.717315 -1.691615 -1.225270 0
M  V30 21 C -0.553426 -0.104394 2.043752 0 CFG=2
M  V30 22 O -1.062459 0.405867 3.272865 0
M  V30 23 C -0.894709 0.699420 0.874130 0
M  V30 24 N -0.349355 0.328482 -0.398028 0
M  V30 25 C -0.928877 1.102237 -1.487097 0
M  V30 26 C -0.665454 0.370967 -2.756908 0 CFG=1
M  V30 27 C -0.691845 1.329617 -3.957173 0
M  V30 28 C -0.968146 0.419525 -5.154046 0
M  V30 29 C 0.131667 -0.609334 -5.229953 0
M  V30 30 C 1.141985 -0.431996 -4.134484 0
M  V30 31 C 0.506941 -0.547249 -2.763366 0 CFG=1
M  V30 32 C 1.540846 -0.285238 -1.738850 0
M  V30 33 C 1.089038 0.349877 -0.472976 0 CFG=1
M  V30 34 C 1.494266 1.797931 -0.358372 0
M  V30 35 O 1.517012 2.410026 0.738360 0
M  V30 36 N 1.884293 2.620607 -1.452053 0
M  V30 37 C 2.266052 3.991171 -1.385890 0
M  V30 38 C 3.502769 4.226962 -0.556524 0
M  V30 39 C 1.170023 4.853939 -0.757969 0
M  V30 40 C 2.505757 4.569356 -2.768945 0
M  V30 41 H 3.510744 -3.302839 3.395273 0
M  V30 42 H 2.084540 -2.226453 3.552494 0
M  V30 43 H 3.174769 -2.440189 4.919864 0
M  V30 44 H 3.579434 -4.366135 7.054485 0
M  V30 45 H 2.037496 -6.700317 6.764298 0
M  V30 46 H -0.176490 -7.123309 5.724888 0
M  V30 47 H -1.017575 -5.707939 3.994817 0
M  V30 48 H -0.299837 -1.776826 4.099490 0
M  V30 49 H -1.047090 -1.980092 1.108609 0
M  V30 50 H -2.825606 -2.586197 2.841551 0
M  V30 51 H -2.454547 -1.047941 3.605809 0
M  V30 52 H -5.802860 -2.667886 1.304053 0
M  V30 53 H -6.686150 -3.991122 -0.488945 0
M  V30 54 H -5.741116 -3.894812 -2.736346 0
M  V30 55 H -3.773375 -2.350343 -3.155212 0
M  V30 56 H -2.901692 -0.984388 -1.193890 0
M  V30 57 H 0.557998 -0.195970 2.135954 0
M  V30 58 H -0.310446 0.549335 3.889531 0
M  V30 59 H -2.009407 0.765110 0.672593 0
M  V30 60 H -0.622011 1.754595 1.063485 0
M  V30 61 H -1.972328 1.295006 -1.243302 0
M  V30 62 H -0.429666 2.090694 -1.530599 0
M  V30 63 H -1.568027 -0.286308 -2.952566 0
M  V30 64 H 0.219151 1.906782 -4.075960 0
M  V30 65 H -1.598529 1.965543 -3.802202 0
M  V30 66 H -1.963218 -0.055690 -4.913691 0
M  V30 67 H -1.134067 0.984336 -6.081332 0
M  V30 68 H -0.285376 -1.649671 -5.081477 0
M  V30 69 H 0.616481 -0.506727 -6.201398 0
M  V30 70 H 1.700956 0.535615 -4.219709 0
M  V30 71 H 1.919796 -1.224012 -4.251493 0
M  V30 72 H 0.189915 -1.634267 -2.700792 0
M  V30 73 H 1.990512 -1.282476 -1.442319 0
M  V30 74 H 2.432667 0.228739 -2.205898 0
M  V30 75 H 1.485741 -0.149872 0.425575 0
M  V30 76 H 1.892150 2.170319 -2.403508 0
M  V30 77 H 3.432374 3.625778 0.364868 0
M  V30 78 H 4.436272 3.986248 -1.137922 0
M  V30 79 H 3.529739 5.333376 -0.325207 0
M  V30 80 H 1.350297 5.891747 -1.110043 0
M  V30 81 H 1.201818 4.864377 0.338395 0
M  V30 82 H 0.172548 4.564310 -1.116368 0
M  V30 83 H 3.106059 3.852052 -3.368525 0
M  V30 84 H 1.545666 4.710740 -3.341181 0
M  V30 85 H 3.043268 5.538047 -2.718903 0
M  V30 END ATOM
M  V30 BEGIN BOND
M  V30 1 1 1 2
M  V30 2 2 2 3
M  V30 3 1 3 4
M  V30 4 1 3 5
M  V30 5 2 5 6
M  V30 6 1 6 7
M  V30 7 2 7 8
M  V30 8 1 8 9
M  V30 9 2 9 10
M  V30 10 1 9 11
M  V30 11 1 11 12
M  V30 12 1 12 13
M  V30 13 1 13 14
M  V30 14 1 14 15
M  V30 15 2 15 16
M  V30 16 1 16 17
M  V30 17 2 17 18
M  V30 18 1 18 19
M  V30 19 2 19 20
M  V30 20 1 12 21
M  V30 21 1 21 22
M  V30 22 1 21 23
M  V30 23 1 23 24
M  V30 24 1 24 25
M  V30 25 1 25 26
M  V30 26 1 26 27
M  V30 27 1 27 28
M  V30 28 1 28 29
M  V30 29 1 29 30
M  V30 30 1 30 31
M  V30 31 1 31 32
M  V30 32 1 32 33
M  V30 33 1 33 34
M  V30 34 2 34 35
M  V30 35 1 34 36
M  V30 36 1 36 37
M  V30 37 1 37 38
M  V30 38 1 37 39
M  V30 39 1 37 40
M  V30 40 1 8 2
M  V30 41 1 20 15
M  V30 42 1 33 24
M  V30 43 1 31 26
M  V30 44 1 1 41
M  V30 45 1 1 42
M  V30 46 1 1 43
M  V30 47 1 4 44
M  V30 48 1 5 45
M  V30 49 1 6 46
M  V30 50 1 7 47
M  V30 51 1 11 48
M  V30 52 1 12 49 CFG=3
M  V30 53 1 13 50
M  V30 54 1 13 51
M  V30 55 1 16 52
M  V30 56 1 17 53
M  V30 57 1 18 54
M  V30 58 1 19 55
M  V30 59 1 20 56
M  V30 60 1 21 57 CFG=1
M  V30 61 1 22 58
M  V30 62 1 23 59
M  V30 63 1 23 60
M  V30 64 1 25 61
M  V30 65 1 25 62
M  V30 66 1 26 63 CFG=3
M  V30 67 1 27 64
M  V30 68 1 27 65
M  V30 69 1 28 66
M  V30 70 1 28 67
M  V30 71 1 29 68
M  V30 72 1 29 69
M  V30 73 1 30 70
M  V30 74 1 30 71
M  V30 75 1 31 72 CFG=1
M  V30 76 1 32 73
M  V30 77 1 32 74
M  V30 78 1 33 75 CFG=1
M  V30 79 1 36 76
M  V30 80 1 38 77
M  V30 81 1 38 78
M  V30 82 1 38 79
M  V30 83 1 39 80
M  V30 84 1 39 81
M  V30 85 1 39 82
M  V30 86 1 40 83
M  V30 87 1 40 84
M  V30 88 1 40 85
M  V30 END BOND
M  V30 END CTAB
M  END
>  <Dataset>  (659) 
OralDrugs

>  <Ligand_Instance>  (659) 
nan

>  <PDB_ID>  (659) 
nan

>  <Standardized_SMILES>  (659) 
Cc1c(O)cccc1C(=O)N[C@@H](CSc1ccccc1)[C@H](O)CN1C[C@H]2CCCC[C@H]2C[C@H]1C(=O)NC(C)(C)C

>  <Name>  (659) 
Nelfinavir

>  <Pocket>  (659) 
nan

>  <ATP_Site>  (659) 
nan

>  <Peripheral>  (659) 
nan

>  <Num_H_Atoms_ProtBoundConf>  (659) 
nan

>  <Num_Resolved_Atoms>  (659) 
nan

>  <Num_Not_Resolved_Atoms>  (659) 
nan

$$$$
CHEMBL180022
     RDKit          3D

  0  0  0  0  0  0  0  0  0  0999 V3000
M  V30 BEGIN CTAB
M  V30 COUNTS 69 72 0 0 0
M  V30 BEGIN ATOM
M  V30 1 C 2.854938 1.793637 5.906506 0
M  V30 2 C 2.436053 0.341243 5.929005 0
M  V30 3 O 1.620988 0.131324 4.806233 0
M  V30 4 C 1.989024 0.308454 3.485366 0
M  V30 5 C 3.211615 0.717987 2.992710 0
M  V30 6 C 3.421834 0.846875 1.637722 0
M  V30 7 N 4.623887 1.251932 1.174409 0
M  V30 8 C 4.788311 1.370847 -0.173630 0
M  V30 9 C 3.788897 1.097702 -1.092823 0
M  V30 10 C 4.032592 1.245093 -2.505262 0
M  V30 11 N 4.218845 1.362938 -3.637288 0
M  V30 12 C 2.562691 0.681205 -0.567093 0
M  V30 13 N 1.523058 0.400749 -1.457239 0
M  V30 14 C 1.123447 -0.765422 -2.151259 0
M  V30 15 C -0.009192 -0.633986 -2.924120 0
M  V30 16 C -0.398125 -1.765806 -3.608020 0
M  V30 17 C 0.245720 -2.980241 -3.574084 0
M  V30 18 O 0.103737 -4.175480 -4.102942 0
M  V30 19 C -0.626095 -4.965456 -4.920776 0
M  V30 20 C -0.724326 -4.562408 -6.357554 0
M  V30 21 C -1.367973 -3.463620 -6.850535 0
M  V30 22 C -1.446523 -3.151588 -8.184233 0
M  V30 23 C -0.868669 -3.941570 -9.125267 0
M  V30 24 C -0.227574 -5.040755 -8.594936 0
M  V30 25 N -0.156085 -5.337608 -7.294897 0
M  V30 26 C 1.394486 -3.040615 -2.761578 0
M  V30 27 Cl 2.450885 -4.429601 -2.488140 0
M  V30 28 C 1.857935 -1.928215 -2.031098 0
M  V30 29 C 2.362201 0.550393 0.805549 0
M  V30 30 C 1.118043 0.136762 1.233542 0
M  V30 31 C 0.943340 0.017696 2.610205 0
M  V30 32 N -0.357691 -0.415590 3.008963 0
M  V30 33 C -1.400130 0.522003 3.274199 0
M  V30 34 O -1.267843 1.770559 3.184555 0
M  V30 35 C -2.697947 -0.002758 3.673942 0
M  V30 36 C -3.736370 0.771064 3.946212 0
M  V30 37 C -5.105623 0.404130 4.359924 0
M  V30 38 N -5.415537 0.988493 5.675053 0
M  V30 39 C -4.602052 0.348110 6.703692 0
M  V30 40 C -5.261545 2.413306 5.697394 0
M  V30 41 H 2.356615 2.305446 6.749691 0
M  V30 42 H 2.525227 2.331624 4.995186 0
M  V30 43 H 3.965145 1.851297 6.023822 0
M  V30 44 H 1.915293 0.127428 6.870428 0
M  V30 45 H 3.356985 -0.304807 5.824470 0
M  V30 46 H 3.969866 0.921303 3.735252 0
M  V30 47 H 5.768242 1.697765 -0.491338 0
M  V30 48 H 1.052443 1.327520 -1.509939 0
M  V30 49 H -0.599741 0.261977 -3.035380 0
M  V30 50 H -1.270900 -1.776107 -4.230399 0
M  V30 51 H -1.694203 -5.103810 -4.549168 0
M  V30 52 H -0.199229 -6.018969 -4.928883 0
M  V30 53 H -1.861759 -2.794181 -6.187520 0
M  V30 54 H -1.985476 -2.245862 -8.513921 0
M  V30 55 H -0.880649 -3.770114 -10.187284 0
M  V30 56 H 0.277225 -5.757441 -9.258166 0
M  V30 57 H 2.713090 -1.878803 -1.391175 0
M  V30 58 H 0.318305 -0.085083 0.522380 0
M  V30 59 H -0.490692 -1.447237 3.093106 0
M  V30 60 H -2.911409 -1.055387 3.778313 0
M  V30 61 H -3.631919 1.845794 3.871304 0
M  V30 62 H -5.105080 -0.705098 4.561114 0
M  V30 63 H -5.883060 0.600924 3.615412 0
M  V30 64 H -3.923988 1.038476 7.208087 0
M  V30 65 H -5.327906 0.002927 7.494897 0
M  V30 66 H -4.090888 -0.537546 6.257434 0
M  V30 67 H -4.309595 2.745256 6.206023 0
M  V30 68 H -5.374730 2.915884 4.720787 0
M  V30 69 H -6.071603 2.829261 6.357384 0
M  V30 END ATOM
M  V30 BEGIN BOND
M  V30 1 1 1 2
M  V30 2 1 2 3
M  V30 3 1 3 4
M  V30 4 2 4 5
M  V30 5 1 5 6
M  V30 6 2 6 7
M  V30 7 1 7 8
M  V30 8 2 8 9
M  V30 9 1 9 10
M  V30 10 3 10 11
M  V30 11 1 9 12
M  V30 12 1 12 13
M  V30 13 1 13 14
M  V30 14 2 14 15
M  V30 15 1 15 16
M  V30 16 2 16 17
M  V30 17 1 17 18
M  V30 18 1 18 19
M  V30 19 1 19 20
M  V30 20 2 20 21
M  V30 21 1 21 22
M  V30 22 2 22 23
M  V30 23 1 23 24
M  V30 24 2 24 25
M  V30 25 1 17 26
M  V30 26 1 26 27
M  V30 27 2 26 28
M  V30 28 2 12 29
M  V30 29 1 29 30
M  V30 30 2 30 31
M  V30 31 1 31 32
M  V30 32 1 32 33
M  V30 33 2 33 34
M  V30 34 1 33 35
M  V30 35 2 35 36
M  V30 36 1 36 37
M  V30 37 1 37 38
M  V30 38 1 38 39
M  V30 39 1 38 40
M  V30 40 1 31 4
M  V30 41 1 29 6
M  V30 42 1 28 14
M  V30 43 1 25 20
M  V30 44 1 1 41
M  V30 45 1 1 42
M  V30 46 1 1 43
M  V30 47 1 2 44
M  V30 48 1 2 45
M  V30 49 1 5 46
M  V30 50 1 8 47
M  V30 51 1 13 48
M  V30 52 1 15 49
M  V30 53 1 16 50
M  V30 54 1 19 51
M  V30 55 1 19 52
M  V30 56 1 21 53
M  V30 57 1 22 54
M  V30 58 1 23 55
M  V30 59 1 24 56
M  V30 60 1 28 57
M  V30 61 1 30 58
M  V30 62 1 32 59
M  V30 63 1 35 60
M  V30 64 1 36 61
M  V30 65 1 37 62
M  V30 66 1 37 63
M  V30 67 1 39 64
M  V30 68 1 39 65
M  V30 69 1 39 66
M  V30 70 1 40 67
M  V30 71 1 40 68
M  V30 72 1 40 69
M  V30 END BOND
M  V30 END CTAB
M  END
>  <Dataset>  (660) 
OralDrugs

>  <Ligand_Instance>  (660) 
nan

>  <PDB_ID>  (660) 
nan

>  <Standardized_SMILES>  (660) 
CCOc1cc2ncc(C#N)c(Nc3ccc(OCc4ccccn4)c(Cl)c3)c2cc1NC(=O)/C=C/CN(C)C

>  <Name>  (660) 
Neratinib

>  <Pocket>  (660) 
nan

>  <ATP_Site>  (660) 
nan

>  <Peripheral>  (660) 
nan

>  <Num_H_Atoms_ProtBoundConf>  (660) 
nan

>  <Num_Resolved_Atoms>  (660) 
nan

>  <Num_Not_Resolved_Atoms>  (660) 
nan

$$$$
CHEMBL206253
     RDKit          3D

  0  0  0  0  0  0  0  0  0  0999 V3000
M  V30 BEGIN CTAB
M  V30 COUNTS 73 76 0 0 0
M  V30 BEGIN ATOM
M  V30 1 C 0.178176 -4.345136 0.803174 0
M  V30 2 C 0.256596 -3.558792 2.031091 0
M  V30 3 C -0.083837 -4.010796 3.289185 0
M  V30 4 C -0.007156 -3.273827 4.452456 0
M  V30 5 C 0.454379 -1.976720 4.304906 0
M  V30 6 C 0.811059 -1.477684 3.044832 0
M  V30 7 C 0.714379 -2.266990 1.896929 0
M  V30 8 C 1.122612 -1.564762 0.727904 0
M  V30 9 C 2.455979 -1.687627 0.386144 0
M  V30 10 C 3.005878 -1.069840 -0.714034 0
M  V30 11 N 4.363059 -1.131041 -1.146669 0
M  V30 12 C 4.795732 -0.467125 -2.392077 0
M  V30 13 C 5.864709 0.559661 -2.077545 0
M  V30 14 N 6.498852 0.268233 -0.799842 0
M  V30 15 C 5.761193 0.882814 0.270624 0
M  V30 16 C 6.693495 -1.132899 -0.596428 0
M  V30 17 C 5.387341 -1.834786 -0.404849 0
M  V30 18 N 2.149135 -0.322997 -1.453475 0
M  V30 19 C 0.849239 -0.171878 -1.165107 0
M  V30 20 C 0.285537 -0.786002 -0.064538 0
M  V30 21 N -1.081424 -0.651958 0.294654 0
M  V30 22 C -1.416330 0.421356 1.225415 0
M  V30 23 C -2.092192 -1.505101 -0.211528 0
M  V30 24 O -1.611363 -2.355355 -1.006817 0
M  V30 25 C -3.516757 -1.376230 0.172876 0
M  V30 26 C -3.753250 -1.924352 1.522278 0
M  V30 27 C -4.238179 -2.349704 -0.786945 0
M  V30 28 C -4.115447 -0.077024 -0.149544 0
M  V30 29 C -3.825514 0.415554 -1.411130 0
M  V30 30 C -4.326316 1.620360 -1.835347 0
M  V30 31 C -3.994541 2.120227 -3.197841 0
M  V30 32 F -4.684801 1.313765 -4.082186 0
M  V30 33 F -2.631606 1.995326 -3.434795 0
M  V30 34 F -4.372995 3.432471 -3.298866 0
M  V30 35 C -5.144571 2.385532 -1.004332 0
M  V30 36 C -5.447138 1.915673 0.256773 0
M  V30 37 C -6.316103 2.638846 1.247533 0
M  V30 38 F -7.255183 1.775178 1.784574 0
M  V30 39 F -5.585878 3.128709 2.313075 0
M  V30 40 F -6.947606 3.708512 0.652607 0
M  V30 41 C -4.918836 0.697639 0.636785 0
M  V30 42 H 0.882988 -4.011569 0.013648 0
M  V30 43 H -0.823607 -4.579790 0.427872 0
M  V30 44 H 0.594037 -5.363945 1.075600 0
M  V30 45 H -0.435692 -5.044724 3.300195 0
M  V30 46 H -0.289482 -3.690533 5.400070 0
M  V30 47 H 0.522104 -1.381197 5.207327 0
M  V30 48 H 1.152317 -0.454554 3.085142 0
M  V30 49 H 3.135674 -2.285077 0.976979 0
M  V30 50 H 5.210052 -1.197407 -3.098267 0
M  V30 51 H 3.918307 0.089132 -2.774445 0
M  V30 52 H 5.487670 1.599049 -2.103109 0
M  V30 53 H 6.647166 0.473478 -2.853375 0
M  V30 54 H 6.273430 1.793593 0.690380 0
M  V30 55 H 5.649100 0.169222 1.107924 0
M  V30 56 H 4.728196 1.160776 -0.033703 0
M  V30 57 H 7.250966 -1.596933 -1.429503 0
M  V30 58 H 7.256921 -1.231855 0.373780 0
M  V30 59 H 5.451534 -2.902203 -0.708257 0
M  V30 60 H 5.082665 -1.857272 0.673291 0
M  V30 61 H 0.192610 0.430957 -1.775049 0
M  V30 62 H -1.801768 1.287612 0.656120 0
M  V30 63 H -2.065425 0.040968 2.007085 0
M  V30 64 H -0.506823 0.808670 1.737405 0
M  V30 65 H -4.504077 -2.768115 1.570698 0
M  V30 66 H -4.054491 -1.253206 2.318269 0
M  V30 67 H -2.815401 -2.431482 1.901530 0
M  V30 68 H -3.745810 -2.378282 -1.761499 0
M  V30 69 H -4.253590 -3.377523 -0.350320 0
M  V30 70 H -5.288194 -2.035939 -0.951359 0
M  V30 71 H -3.186482 -0.132988 -2.119924 0
M  V30 72 H -5.561372 3.341049 -1.297215 0
M  V30 73 H -5.143117 0.313234 1.615914 0
M  V30 END ATOM
M  V30 BEGIN BOND
M  V30 1 1 1 2
M  V30 2 2 2 3
M  V30 3 1 3 4
M  V30 4 2 4 5
M  V30 5 1 5 6
M  V30 6 2 6 7
M  V30 7 1 7 8
M  V30 8 2 8 9
M  V30 9 1 9 10
M  V30 10 1 10 11
M  V30 11 1 11 12
M  V30 12 1 12 13
M  V30 13 1 13 14
M  V30 14 1 14 15
M  V30 15 1 14 16
M  V30 16 1 16 17
M  V30 17 2 10 18
M  V30 18 1 18 19
M  V30 19 2 19 20
M  V30 20 1 20 21
M  V30 21 1 21 22
M  V30 22 1 21 23
M  V30 23 2 23 24
M  V30 24 1 23 25
M  V30 25 1 25 26
M  V30 26 1 25 27
M  V30 27 1 25 28
M  V30 28 2 28 29
M  V30 29 1 29 30
M  V30 30 1 30 31
M  V30 31 1 31 32
M  V30 32 1 31 33
M  V30 33 1 31 34
M  V30 34 2 30 35
M  V30 35 1 35 36
M  V30 36 1 36 37
M  V30 37 1 37 38
M  V30 38 1 37 39
M  V30 39 1 37 40
M  V30 40 2 36 41
M  V30 41 1 7 2
M  V30 42 1 20 8
M  V30 43 1 41 28
M  V30 44 1 17 11
M  V30 45 1 1 42
M  V30 46 1 1 43
M  V30 47 1 1 44
M  V30 48 1 3 45
M  V30 49 1 4 46
M  V30 50 1 5 47
M  V30 51 1 6 48
M  V30 52 1 9 49
M  V30 53 1 12 50
M  V30 54 1 12 51
M  V30 55 1 13 52
M  V30 56 1 13 53
M  V30 57 1 15 54
M  V30 58 1 15 55
M  V30 59 1 15 56
M  V30 60 1 16 57
M  V30 61 1 16 58
M  V30 62 1 17 59
M  V30 63 1 17 60
M  V30 64 1 19 61
M  V30 65 1 22 62
M  V30 66 1 22 63
M  V30 67 1 22 64
M  V30 68 1 26 65
M  V30 69 1 26 66
M  V30 70 1 26 67
M  V30 71 1 27 68
M  V30 72 1 27 69
M  V30 73 1 27 70
M  V30 74 1 29 71
M  V30 75 1 35 72
M  V30 76 1 41 73
M  V30 END BOND
M  V30 END CTAB
M  END
>  <Dataset>  (661) 
OralDrugs

>  <Ligand_Instance>  (661) 
nan

>  <PDB_ID>  (661) 
nan

>  <Standardized_SMILES>  (661) 
Cc1ccccc1-c1cc(N2CCN(C)CC2)ncc1N(C)C(=O)C(C)(C)c1cc(C(F)(F)F)cc(C(F)(F)F)c1

>  <Name>  (661) 
Netupitant

>  <Pocket>  (661) 
nan

>  <ATP_Site>  (661) 
nan

>  <Peripheral>  (661) 
nan

>  <Num_H_Atoms_ProtBoundConf>  (661) 
nan

>  <Num_Resolved_Atoms>  (661) 
nan

>  <Num_Not_Resolved_Atoms>  (661) 
nan

$$$$
CHEMBL57
     RDKit          3D

  0  0  0  0  0  0  0  0  0  0999 V3000
M  V30 BEGIN CTAB
M  V30 COUNTS 34 37 0 0 0
M  V30 BEGIN ATOM
M  V30 1 C 2.058809 -2.529121 3.652402 0
M  V30 2 C 0.820927 -2.496948 2.794651 0
M  V30 3 C -0.225580 -3.385771 3.040569 0
M  V30 4 C -1.302191 -3.256727 2.187649 0
M  V30 5 N -1.361412 -2.354511 1.192030 0
M  V30 6 C -0.335437 -1.483581 0.951428 0
M  V30 7 C 0.760109 -1.570805 1.772589 0
M  V30 8 N 1.921979 -0.786470 1.713078 0
M  V30 9 C 2.035277 0.509170 1.133479 0
M  V30 10 O 2.990833 1.222260 1.562025 0
M  V30 11 C 1.187998 1.113078 0.109988 0
M  V30 12 C 1.659432 2.335798 -0.321920 0
M  V30 13 C 0.983094 3.058864 -1.294378 0
M  V30 14 C -0.167696 2.472728 -1.781611 0
M  V30 15 N -0.593480 1.279299 -1.334247 0
M  V30 16 C 0.033535 0.551949 -0.396054 0
M  V30 17 N -0.700732 -0.648454 -0.176373 0
M  V30 18 C -1.764210 -1.053229 -1.007248 0
M  V30 19 C -2.938036 -0.057302 -1.045881 0
M  V30 20 C -2.238302 -0.558033 -2.255492 0
M  V30 21 H 2.921553 -2.961770 3.146149 0
M  V30 22 H 1.807333 -3.136774 4.555654 0
M  V30 23 H 2.268793 -1.505998 4.081243 0
M  V30 24 H -0.156598 -4.101342 3.844877 0
M  V30 25 H -2.150179 -3.918870 2.325356 0
M  V30 26 H 2.806722 -1.191919 2.139758 0
M  V30 27 H 2.569359 2.736003 0.103985 0
M  V30 28 H 1.320103 4.020249 -1.659242 0
M  V30 29 H -0.762356 2.973550 -2.549932 0
M  V30 30 H -2.054933 -2.129120 -0.782655 0
M  V30 31 H -3.923114 -0.502324 -0.740472 0
M  V30 32 H -2.818468 0.947386 -0.633679 0
M  V30 33 H -2.907302 -1.236771 -2.873012 0
M  V30 34 H -1.747435 0.102023 -2.996470 0
M  V30 END ATOM
M  V30 BEGIN BOND
M  V30 1 1 1 2
M  V30 2 2 2 3
M  V30 3 1 3 4
M  V30 4 2 4 5
M  V30 5 1 5 6
M  V30 6 2 6 7
M  V30 7 1 7 8
M  V30 8 1 8 9
M  V30 9 2 9 10
M  V30 10 1 9 11
M  V30 11 2 11 12
M  V30 12 1 12 13
M  V30 13 2 13 14
M  V30 14 1 14 15
M  V30 15 2 15 16
M  V30 16 1 16 17
M  V30 17 1 17 18
M  V30 18 1 18 19
M  V30 19 1 19 20
M  V30 20 1 7 2
M  V30 21 1 16 11
M  V30 22 1 20 18
M  V30 23 1 17 6
M  V30 24 1 1 21
M  V30 25 1 1 22
M  V30 26 1 1 23
M  V30 27 1 3 24
M  V30 28 1 4 25
M  V30 29 1 8 26
M  V30 30 1 12 27
M  V30 31 1 13 28
M  V30 32 1 14 29
M  V30 33 1 18 30
M  V30 34 1 19 31
M  V30 35 1 19 32
M  V30 36 1 20 33
M  V30 37 1 20 34
M  V30 END BOND
M  V30 END CTAB
M  END
>  <Dataset>  (662) 
OralDrugs

>  <Ligand_Instance>  (662) 
nan

>  <PDB_ID>  (662) 
nan

>  <Standardized_SMILES>  (662) 
Cc1ccnc2c1NC(=O)c1cccnc1N2C1CC1

>  <Name>  (662) 
Nevirapine

>  <Pocket>  (662) 
nan

>  <ATP_Site>  (662) 
nan

>  <Peripheral>  (662) 
nan

>  <Num_H_Atoms_ProtBoundConf>  (662) 
nan

>  <Num_Resolved_Atoms>  (662) 
nan

>  <Num_Not_Resolved_Atoms>  (662) 
nan

$$$$
CHEMBL573
     RDKit          3D

  0  0  0  0  0  0  0  0  0  0999 V3000
M  V30 BEGIN CTAB
M  V30 COUNTS 14 14 0 0 0
M  V30 BEGIN ATOM
M  V30 1 O 3.229441 -1.056579 2.752160 0
M  V30 2 C 2.393753 -1.252605 1.817187 0
M  V30 3 O 2.233803 -2.601260 1.532535 0
M  V30 4 C 1.681165 -0.184961 1.119489 0
M  V30 5 C 0.788530 -0.492658 0.112876 0
M  V30 6 C 0.129914 0.534544 -0.528723 0
M  V30 7 C 0.405806 1.841416 -0.119912 0
M  V30 8 N 1.287014 2.102256 0.870352 0
M  V30 9 C 1.951630 1.105323 1.520991 0
M  V30 10 H 2.148010 -3.328763 2.232386 0
M  V30 11 H 0.628447 -1.528886 -0.146749 0
M  V30 12 H -0.570784 0.293816 -1.318826 0
M  V30 13 H -0.135884 2.613563 -0.653459 0
M  V30 14 H 2.657008 1.354051 2.316885 0
M  V30 END ATOM
M  V30 BEGIN BOND
M  V30 1 2 1 2
M  V30 2 1 2 3
M  V30 3 1 2 4
M  V30 4 2 4 5
M  V30 5 1 5 6
M  V30 6 2 6 7
M  V30 7 1 7 8
M  V30 8 2 8 9
M  V30 9 1 9 4
M  V30 10 1 3 10
M  V30 11 1 5 11
M  V30 12 1 6 12
M  V30 13 1 7 13
M  V30 14 1 9 14
M  V30 END BOND
M  V30 END CTAB
M  END
>  <Dataset>  (663) 
OralDrugs

>  <Ligand_Instance>  (663) 
nan

>  <PDB_ID>  (663) 
nan

>  <Standardized_SMILES>  (663) 
O=C(O)c1cccnc1

>  <Name>  (663) 
Niacin

>  <Pocket>  (663) 
nan

>  <ATP_Site>  (663) 
nan

>  <Peripheral>  (663) 
nan

>  <Num_H_Atoms_ProtBoundConf>  (663) 
nan

>  <Num_Resolved_Atoms>  (663) 
nan

>  <Num_Not_Resolved_Atoms>  (663) 
nan

$$$$
CHEMBL1140
     RDKit          3D

  0  0  0  0  0  0  0  0  0  0999 V3000
M  V30 BEGIN CTAB
M  V30 COUNTS 15 15 0 0 0
M  V30 BEGIN ATOM
M  V30 1 N 0.798280 -2.439896 0.796270 0
M  V30 2 C -0.024019 -1.338670 1.176915 0
M  V30 3 O -1.233721 -1.532809 1.461954 0
M  V30 4 C 0.705444 -0.076967 1.178500 0
M  V30 5 C 2.030956 0.138903 0.866611 0
M  V30 6 C 2.541789 1.418919 0.927821 0
M  V30 7 C 1.737766 2.493153 1.299677 0
M  V30 8 N 0.455201 2.236733 1.594253 0
M  V30 9 C -0.080410 1.003557 1.546585 0
M  V30 10 H 1.550268 -3.087170 1.175005 0
M  V30 11 H 0.517625 -2.614304 -0.185468 0
M  V30 12 H 2.572885 -0.755904 0.590084 0
M  V30 13 H 3.597079 1.445788 0.657530 0
M  V30 14 H 2.235026 3.440720 1.314022 0
M  V30 15 H -1.113408 0.966784 1.809560 0
M  V30 END ATOM
M  V30 BEGIN BOND
M  V30 1 1 1 2
M  V30 2 2 2 3
M  V30 3 1 2 4
M  V30 4 2 4 5
M  V30 5 1 5 6
M  V30 6 2 6 7
M  V30 7 1 7 8
M  V30 8 2 8 9
M  V30 9 1 9 4
M  V30 10 1 1 10
M  V30 11 1 1 11
M  V30 12 1 5 12
M  V30 13 1 6 13
M  V30 14 1 7 14
M  V30 15 1 9 15
M  V30 END BOND
M  V30 END CTAB
M  END
>  <Dataset>  (664) 
OralDrugs

>  <Ligand_Instance>  (664) 
nan

>  <PDB_ID>  (664) 
nan

>  <Standardized_SMILES>  (664) 
NC(=O)c1cccnc1

>  <Name>  (664) 
Niacinamide

>  <Pocket>  (664) 
nan

>  <ATP_Site>  (664) 
nan

>  <Peripheral>  (664) 
nan

>  <Num_H_Atoms_ProtBoundConf>  (664) 
nan

>  <Num_Resolved_Atoms>  (664) 
nan

>  <Num_Not_Resolved_Atoms>  (664) 
nan

$$$$
CHEMBL1484
     RDKit          3D

  0  0  0  0  0  0  0  0  0  0999 V3000
M  V30 BEGIN CTAB
M  V30 COUNTS 64 66 0 0 0
M  V30 BEGIN ATOM
M  V30 1 C 3.755149 0.871076 -2.890501 0
M  V30 2 O 3.082068 0.979261 -1.653355 0
M  V30 3 C 3.686180 1.210015 -0.436640 0
M  V30 4 O 4.759988 1.223907 -1.079221 0
M  V30 5 C 3.052665 1.332424 0.865594 0
M  V30 6 C 3.815917 1.556469 1.922175 0
M  V30 7 C 5.289625 1.704921 1.953758 0
M  V30 8 N 3.096218 1.661502 3.147047 0
M  V30 9 C 1.683606 1.544085 3.283459 0
M  V30 10 C 1.018533 1.669771 4.600455 0
M  V30 11 C 1.059315 1.319266 2.139847 0
M  V30 12 C -0.382500 1.192632 2.221595 0
M  V30 13 O -1.089125 1.276561 3.255119 0
M  V30 14 O -1.297296 0.956528 1.208086 0
M  V30 15 C -2.653164 0.889839 1.608842 0
M  V30 16 C -3.584820 0.631868 0.480884 0
M  V30 17 N -3.356036 -0.614104 -0.227594 0
M  V30 18 C -4.379161 -0.631496 -1.288000 0
M  V30 19 C -3.730020 -1.748480 0.635834 0
M  V30 20 C -3.532911 -3.049295 -0.014045 0
M  V30 21 C -4.573691 -3.617493 -0.760388 0
M  V30 22 C -4.384362 -4.850299 -1.374034 0
M  V30 23 C -3.205829 -5.559385 -1.287116 0
M  V30 24 C -2.183772 -4.998012 -0.552201 0
M  V30 25 C -2.355783 -3.766661 0.067461 0
M  V30 26 C 1.593583 1.177233 0.780747 0
M  V30 27 C 1.169826 -0.038507 0.058831 0
M  V30 28 C 0.375412 0.059750 -1.065276 0
M  V30 29 C -0.001169 -1.088904 -1.731869 0
M  V30 30 C 0.401142 -2.336870 -1.296629 0
M  V30 31 C 1.191395 -2.361371 -0.169967 0
M  V30 32 N 1.636930 -3.631427 0.322763 0 CHG=1 VAL=4
M  V30 33 O 1.363404 -4.716690 -0.195673 0
M  V30 34 O 2.426016 -3.714455 1.445114 0 CHG=-1 VAL=1
M  V30 35 C 1.616771 -1.249595 0.562424 0
M  V30 36 H 4.453388 0.014816 -2.823823 0
M  V30 37 H 3.050631 0.627433 -3.711036 0
M  V30 38 H 4.352779 1.778479 -3.105875 0
M  V30 39 H 5.716940 1.768861 0.938793 0
M  V30 40 H 5.710711 0.836160 2.534733 0
M  V30 41 H 5.601361 2.645612 2.460593 0
M  V30 42 H 3.649245 1.840641 4.027596 0
M  V30 43 H 0.531706 0.706592 4.837023 0
M  V30 44 H 0.297576 2.517963 4.656516 0
M  V30 45 H 1.823045 1.839519 5.374717 0
M  V30 46 H -2.766276 0.189358 2.451112 0
M  V30 47 H -2.893072 1.903079 2.009999 0
M  V30 48 H -3.637449 1.496174 -0.211125 0
M  V30 49 H -4.609546 0.531419 0.932305 0
M  V30 50 H -4.277685 0.309518 -1.830976 0
M  V30 51 H -4.212545 -1.464138 -2.001920 0
M  V30 52 H -5.400624 -0.726340 -0.861205 0
M  V30 53 H -3.177610 -1.656731 1.605879 0
M  V30 54 H -4.810542 -1.653097 0.908098 0
M  V30 55 H -5.544582 -3.121097 -0.881155 0
M  V30 56 H -5.155912 -5.335417 -1.963560 0
M  V30 57 H -3.048475 -6.516622 -1.760315 0
M  V30 58 H -1.246569 -5.542571 -0.472686 0
M  V30 59 H -1.546377 -3.307752 0.656899 0
M  V30 60 H 1.188088 2.061277 0.204324 0
M  V30 61 H 0.045588 1.038458 -1.426554 0
M  V30 62 H -0.624641 -1.022769 -2.614285 0
M  V30 63 H 0.145096 -3.271297 -1.768137 0
M  V30 64 H 2.232112 -1.356977 1.430253 0
M  V30 END ATOM
M  V30 BEGIN BOND
M  V30 1 1 1 2
M  V30 2 1 2 3
M  V30 3 2 3 4
M  V30 4 1 3 5
M  V30 5 2 5 6
M  V30 6 1 6 7
M  V30 7 1 6 8
M  V30 8 1 8 9
M  V30 9 1 9 10
M  V30 10 2 9 11
M  V30 11 1 11 12
M  V30 12 2 12 13
M  V30 13 1 12 14
M  V30 14 1 14 15
M  V30 15 1 15 16
M  V30 16 1 16 17
M  V30 17 1 17 18
M  V30 18 1 17 19
M  V30 19 1 19 20
M  V30 20 2 20 21
M  V30 21 1 21 22
M  V30 22 2 22 23
M  V30 23 1 23 24
M  V30 24 2 24 25
M  V30 25 1 11 26
M  V30 26 1 26 27
M  V30 27 2 27 28
M  V30 28 1 28 29
M  V30 29 2 29 30
M  V30 30 1 30 31
M  V30 31 1 31 32
M  V30 32 2 32 33
M  V30 33 1 32 34
M  V30 34 2 31 35
M  V30 35 1 26 5
M  V30 36 1 35 27
M  V30 37 1 25 20
M  V30 38 1 1 36
M  V30 39 1 1 37
M  V30 40 1 1 38
M  V30 41 1 7 39
M  V30 42 1 7 40
M  V30 43 1 7 41
M  V30 44 1 8 42
M  V30 45 1 10 43
M  V30 46 1 10 44
M  V30 47 1 10 45
M  V30 48 1 15 46
M  V30 49 1 15 47
M  V30 50 1 16 48
M  V30 51 1 16 49
M  V30 52 1 18 50
M  V30 53 1 18 51
M  V30 54 1 18 52
M  V30 55 1 19 53
M  V30 56 1 19 54
M  V30 57 1 21 55
M  V30 58 1 22 56
M  V30 59 1 23 57
M  V30 60 1 24 58
M  V30 61 1 25 59
M  V30 62 1 26 60
M  V30 63 1 28 61
M  V30 64 1 29 62
M  V30 65 1 30 63
M  V30 66 1 35 64
M  V30 END BOND
M  V30 END CTAB
M  END
>  <Dataset>  (665) 
OralDrugs

>  <Ligand_Instance>  (665) 
nan

>  <PDB_ID>  (665) 
nan

>  <Standardized_SMILES>  (665) 
COC(=O)C1=C(C)NC(C)=C(C(=O)OCCN(C)Cc2ccccc2)C1c1cccc([N+](=O)[O-])c1

>  <Name>  (665) 
Nicardipine

>  <Pocket>  (665) 
nan

>  <ATP_Site>  (665) 
nan

>  <Peripheral>  (665) 
nan

>  <Num_H_Atoms_ProtBoundConf>  (665) 
nan

>  <Num_Resolved_Atoms>  (665) 
nan

>  <Num_Not_Resolved_Atoms>  (665) 
nan

$$$$
CHEMBL1448
     RDKit          3D

  0  0  0  0  0  0  0  0  0  0999 V3000
M  V30 BEGIN CTAB
M  V30 COUNTS 29 30 0 0 0
M  V30 BEGIN ATOM
M  V30 1 O 0.070134 -0.697017 -0.310450 0
M  V30 2 C -0.238709 -1.093148 0.849077 0
M  V30 3 N 0.682956 -0.575293 1.786263 0
M  V30 4 C 1.655059 0.227531 1.076035 0
M  V30 5 C 2.823127 -0.316831 0.574888 0
M  V30 6 C 3.714634 0.524826 -0.100992 0
M  V30 7 C 3.366288 1.863113 -0.225982 0
M  V30 8 N 4.303943 2.690824 -0.923422 0 CHG=1 VAL=4
M  V30 9 O 4.069762 3.905513 -1.080943 0
M  V30 10 O 5.487172 2.240489 -1.454687 0 CHG=-1 VAL=1
M  V30 11 C 2.193005 2.395999 0.280647 0
M  V30 12 C 1.306385 1.557012 0.953277 0
M  V30 13 Cl -0.155150 2.257515 1.575817 0
M  V30 14 C -1.385898 -1.943756 1.046497 0
M  V30 15 C -2.120686 -2.301415 -0.067176 0
M  V30 16 C -3.227153 -3.104212 0.005929 0
M  V30 17 Cl -4.097959 -3.506113 -1.459468 0
M  V30 18 C -3.681367 -3.610168 1.204339 0
M  V30 19 C -2.967364 -3.269781 2.333911 0
M  V30 20 C -1.857233 -2.458630 2.222845 0
M  V30 21 O -1.200855 -2.163870 3.381537 0
M  V30 22 H 0.532066 -0.834055 2.784445 0
M  V30 23 H 3.033321 -1.376496 0.709149 0
M  V30 24 H 4.637803 0.132828 -0.505990 0
M  V30 25 H 2.000318 3.454179 0.137320 0
M  V30 26 H -1.822828 -1.938833 -1.057036 0
M  V30 27 H -4.543169 -4.241920 1.304019 0
M  V30 28 H -3.297786 -3.649795 3.284868 0
M  V30 29 H -1.556922 -2.220893 4.323978 0
M  V30 END ATOM
M  V30 BEGIN BOND
M  V30 1 2 1 2
M  V30 2 1 2 3
M  V30 3 1 3 4
M  V30 4 2 4 5
M  V30 5 1 5 6
M  V30 6 2 6 7
M  V30 7 1 7 8
M  V30 8 2 8 9
M  V30 9 1 8 10
M  V30 10 1 7 11
M  V30 11 2 11 12
M  V30 12 1 12 13
M  V30 13 1 2 14
M  V30 14 2 14 15
M  V30 15 1 15 16
M  V30 16 1 16 17
M  V30 17 2 16 18
M  V30 18 1 18 19
M  V30 19 2 19 20
M  V30 20 1 20 21
M  V30 21 1 12 4
M  V30 22 1 20 14
M  V30 23 1 3 22
M  V30 24 1 5 23
M  V30 25 1 6 24
M  V30 26 1 11 25
M  V30 27 1 15 26
M  V30 28 1 18 27
M  V30 29 1 19 28
M  V30 30 1 21 29
M  V30 END BOND
M  V30 END CTAB
M  END
>  <Dataset>  (666) 
OralDrugs

>  <Ligand_Instance>  (666) 
nan

>  <PDB_ID>  (666) 
nan

>  <Standardized_SMILES>  (666) 
O=C(Nc1ccc([N+](=O)[O-])cc1Cl)c1cc(Cl)ccc1O

>  <Name>  (666) 
Niclosamide

>  <Pocket>  (666) 
nan

>  <ATP_Site>  (666) 
nan

>  <Peripheral>  (666) 
nan

>  <Num_H_Atoms_ProtBoundConf>  (666) 
nan

>  <Num_Resolved_Atoms>  (666) 
nan

>  <Num_Not_Resolved_Atoms>  (666) 
nan

$$$$
CHEMBL3
     RDKit          3D

  0  0  0  0  0  0  0  0  0  0999 V3000
M  V30 BEGIN CTAB
M  V30 COUNTS 26 27 0 0 0
M  V30 BEGIN ATOM
M  V30 1 C 0.811814 2.037833 1.238551 0
M  V30 2 N 0.278258 0.911336 0.504197 0
M  V30 3 C -0.906976 1.370016 -0.179623 0
M  V30 4 C -1.843181 0.168404 -0.112919 0
M  V30 5 C -1.600934 -0.155593 1.363738 0
M  V30 6 C -0.115512 -0.189710 1.376665 0 CFG=1
M  V30 7 C 0.503575 -1.449298 0.970685 0
M  V30 8 C 1.858839 -1.335642 0.671242 0
M  V30 9 C 2.570693 -2.469795 0.268904 0
M  V30 10 C 1.847486 -3.633341 0.202306 0
M  V30 11 N 0.522246 -3.773705 0.489117 0
M  V30 12 C -0.129262 -2.648128 0.875326 0
M  V30 13 H 1.107077 2.786036 0.488703 0
M  V30 14 H 1.713119 1.717990 1.778520 0
M  V30 15 H 0.076466 2.487827 1.929207 0
M  V30 16 H -0.734005 1.745854 -1.184694 0
M  V30 17 H -1.405770 2.202652 0.388349 0
M  V30 18 H -1.417369 -0.597258 -0.781398 0
M  V30 19 H -2.890750 0.442040 -0.325181 0
M  V30 20 H -1.908556 0.767781 1.921651 0
M  V30 21 H -2.129397 -1.027790 1.713023 0
M  V30 22 H 0.316834 0.071752 2.383088 0
M  V30 23 H 2.444403 -0.418803 0.719981 0
M  V30 24 H 3.617821 -2.495268 0.014294 0
M  V30 25 H 2.346666 -4.536368 -0.101939 0
M  V30 26 H -1.157626 -2.715748 1.106351 0
M  V30 END ATOM
M  V30 BEGIN BOND
M  V30 1 1 1 2
M  V30 2 1 2 3
M  V30 3 1 3 4
M  V30 4 1 4 5
M  V30 5 1 5 6
M  V30 6 1 6 7
M  V30 7 2 7 8
M  V30 8 1 8 9
M  V30 9 2 9 10
M  V30 10 1 10 11
M  V30 11 2 11 12
M  V30 12 1 6 2
M  V30 13 1 12 7
M  V30 14 1 1 13
M  V30 15 1 1 14
M  V30 16 1 1 15
M  V30 17 1 3 16
M  V30 18 1 3 17
M  V30 19 1 4 18
M  V30 20 1 4 19
M  V30 21 1 5 20
M  V30 22 1 5 21
M  V30 23 1 6 22 CFG=1
M  V30 24 1 8 23
M  V30 25 1 9 24
M  V30 26 1 10 25
M  V30 27 1 12 26
M  V30 END BOND
M  V30 END CTAB
M  END
>  <Dataset>  (667) 
OralDrugs

>  <Ligand_Instance>  (667) 
nan

>  <PDB_ID>  (667) 
nan

>  <Standardized_SMILES>  (667) 
CN1CCC[C@H]1c1cccnc1

>  <Name>  (667) 
Nicotine

>  <Pocket>  (667) 
nan

>  <ATP_Site>  (667) 
nan

>  <Peripheral>  (667) 
nan

>  <Num_H_Atoms_ProtBoundConf>  (667) 
nan

>  <Num_Resolved_Atoms>  (667) 
nan

>  <Num_Not_Resolved_Atoms>  (667) 
nan

$$$$
CHEMBL193
     RDKit          3D

  0  0  0  0  0  0  0  0  0  0999 V3000
M  V30 BEGIN CTAB
M  V30 COUNTS 43 44 0 0 0
M  V30 BEGIN ATOM
M  V30 1 C 1.036981 -4.821564 2.106146 0
M  V30 2 O 0.909373 -3.437236 1.936192 0
M  V30 3 C 1.439304 -2.752937 0.883214 0
M  V30 4 O 1.875352 -3.843567 0.468897 0
M  V30 5 C 1.548512 -1.428727 0.342112 0
M  V30 6 C 2.212574 -1.324397 -0.775290 0
M  V30 7 C 2.832919 -2.475019 -1.476819 0
M  V30 8 N 2.322649 0.001869 -1.330230 0
M  V30 9 C 1.773131 1.184825 -0.764011 0
M  V30 10 C 1.925868 2.502432 -1.387598 0
M  V30 11 C 1.126042 0.967134 0.358718 0
M  V30 12 C 0.528773 2.121486 1.010437 0
M  V30 13 O 0.571371 3.308736 0.603566 0
M  V30 14 O -0.194978 2.139716 2.191784 0
M  V30 15 C -0.726487 3.336832 2.723639 0
M  V30 16 C 0.898616 -0.301760 1.101547 0
M  V30 17 C -0.545600 -0.627639 1.131960 0
M  V30 18 C -1.240732 -0.544325 -0.056682 0
M  V30 19 C -2.578295 -0.868480 0.006005 0
M  V30 20 C -3.218514 -1.251957 1.143542 0
M  V30 21 C -2.528563 -1.337208 2.337094 0
M  V30 22 C -1.191071 -1.012683 2.273562 0
M  V30 23 N -0.507217 -1.097412 3.513192 0 CHG=1 VAL=4
M  V30 24 O 0.541691 -1.322877 4.138414 0
M  V30 25 O -1.206589 -0.824531 4.688562 0 CHG=-1 VAL=1
M  V30 26 H 2.109834 -5.072686 2.255986 0
M  V30 27 H 0.447341 -5.066419 3.028293 0
M  V30 28 H 0.612986 -5.405376 1.253478 0
M  V30 29 H 3.585634 -2.946106 -0.832823 0
M  V30 30 H 2.004447 -3.188765 -1.761249 0
M  V30 31 H 3.253691 -2.106107 -2.436519 0
M  V30 32 H 2.862239 0.100079 -2.242003 0
M  V30 33 H 0.930683 2.893751 -1.666204 0
M  V30 34 H 2.499289 3.154390 -0.705918 0
M  V30 35 H 2.497616 2.383234 -2.338992 0
M  V30 36 H -0.866265 3.211524 3.835645 0
M  V30 37 H -1.707206 3.583149 2.260379 0
M  V30 38 H -0.061796 4.205923 2.579023 0
M  V30 39 H 1.387655 -0.244969 2.068049 0
M  V30 40 H -0.745984 -0.240860 -0.969681 0
M  V30 41 H -3.126210 -0.803205 -0.929844 0
M  V30 42 H -4.258738 -1.484403 1.095365 0
M  V30 43 H -3.055359 -1.643244 3.227852 0
M  V30 END ATOM
M  V30 BEGIN BOND
M  V30 1 1 1 2
M  V30 2 1 2 3
M  V30 3 2 3 4
M  V30 4 1 3 5
M  V30 5 2 5 6
M  V30 6 1 6 7
M  V30 7 1 6 8
M  V30 8 1 8 9
M  V30 9 1 9 10
M  V30 10 2 9 11
M  V30 11 1 11 12
M  V30 12 2 12 13
M  V30 13 1 12 14
M  V30 14 1 14 15
M  V30 15 1 11 16
M  V30 16 1 16 17
M  V30 17 2 17 18
M  V30 18 1 18 19
M  V30 19 2 19 20
M  V30 20 1 20 21
M  V30 21 2 21 22
M  V30 22 1 22 23
M  V30 23 2 23 24
M  V30 24 1 23 25
M  V30 25 1 16 5
M  V30 26 1 22 17
M  V30 27 1 1 26
M  V30 28 1 1 27
M  V30 29 1 1 28
M  V30 30 1 7 29
M  V30 31 1 7 30
M  V30 32 1 7 31
M  V30 33 1 8 32
M  V30 34 1 10 33
M  V30 35 1 10 34
M  V30 36 1 10 35
M  V30 37 1 15 36
M  V30 38 1 15 37
M  V30 39 1 15 38
M  V30 40 1 16 39
M  V30 41 1 18 40
M  V30 42 1 19 41
M  V30 43 1 20 42
M  V30 44 1 21 43
M  V30 END BOND
M  V30 END CTAB
M  END
>  <Dataset>  (668) 
OralDrugs

>  <Ligand_Instance>  (668) 
nan

>  <PDB_ID>  (668) 
nan

>  <Standardized_SMILES>  (668) 
COC(=O)C1=C(C)NC(C)=C(C(=O)OC)C1c1ccccc1[N+](=O)[O-]

>  <Name>  (668) 
Nifedipine

>  <Pocket>  (668) 
nan

>  <ATP_Site>  (668) 
nan

>  <Peripheral>  (668) 
nan

>  <Num_H_Atoms_ProtBoundConf>  (668) 
nan

>  <Num_Resolved_Atoms>  (668) 
nan

>  <Num_Not_Resolved_Atoms>  (668) 
nan

$$$$
CHEMBL290960
     RDKit          3D

  0  0  0  0  0  0  0  0  0  0999 V3000
M  V30 BEGIN CTAB
M  V30 COUNTS 32 33 0 0 0
M  V30 BEGIN ATOM
M  V30 1 C -1.876016 -1.638960 1.654263 0
M  V30 2 C -0.820979 -2.563615 1.086602 0
M  V30 3 C -0.093493 -3.149061 2.304591 0
M  V30 4 S 1.419259 -3.890383 1.810080 0
M  V30 5 O 1.539347 -5.285624 2.335218 0
M  V30 6 O 2.584327 -3.115664 2.348916 0
M  V30 7 C 1.453399 -3.882543 0.012797 0
M  V30 8 C 1.140170 -2.507778 -0.473846 0
M  V30 9 N 0.144636 -1.806150 0.275528 0
M  V30 10 N 0.064806 -0.415882 0.257506 0
M  V30 11 C 0.175744 0.328041 -0.765780 0
M  V30 12 C 0.024609 1.708451 -0.309487 0
M  V30 13 C -1.169114 2.402929 -0.306004 0
M  V30 14 C -0.872502 3.660585 0.197565 0
M  V30 15 C 0.487942 3.664622 0.474171 0
M  V30 16 N 1.178695 4.789029 1.010468 0 CHG=1 VAL=4
M  V30 17 O 2.418191 4.685600 1.224753 0
M  V30 18 O 0.440344 5.930967 1.263861 0 CHG=-1 VAL=1
M  V30 19 O 0.991423 2.492312 0.162536 0
M  V30 20 H -1.368896 -0.720050 2.007972 0
M  V30 21 H -2.688102 -1.428021 0.933051 0
M  V30 22 H -2.278926 -2.128124 2.564755 0
M  V30 23 H -1.233559 -3.329013 0.425689 0
M  V30 24 H 0.117224 -2.270760 2.948939 0
M  V30 25 H -0.807770 -3.848335 2.778441 0
M  V30 26 H 2.501519 -4.128952 -0.284107 0
M  V30 27 H 0.761345 -4.649123 -0.374201 0
M  V30 28 H 0.771545 -2.596226 -1.534350 0
M  V30 29 H 2.094156 -1.929468 -0.573127 0
M  V30 30 H 0.349004 -0.147367 -1.722572 0
M  V30 31 H -2.124594 1.996897 -0.642481 0
M  V30 32 H -1.625849 4.427366 0.315626 0
M  V30 END ATOM
M  V30 BEGIN BOND
M  V30 1 1 1 2
M  V30 2 1 2 3
M  V30 3 1 3 4
M  V30 4 2 4 5
M  V30 5 2 4 6
M  V30 6 1 4 7
M  V30 7 1 7 8
M  V30 8 1 8 9
M  V30 9 1 9 10
M  V30 10 2 10 11
M  V30 11 1 11 12
M  V30 12 2 12 13
M  V30 13 1 13 14
M  V30 14 2 14 15
M  V30 15 1 15 16
M  V30 16 2 16 17
M  V30 17 1 16 18
M  V30 18 1 15 19
M  V30 19 1 9 2
M  V30 20 1 19 12
M  V30 21 1 1 20
M  V30 22 1 1 21
M  V30 23 1 1 22
M  V30 24 1 2 23
M  V30 25 1 3 24
M  V30 26 1 3 25
M  V30 27 1 7 26
M  V30 28 1 7 27
M  V30 29 1 8 28
M  V30 30 1 8 29
M  V30 31 1 11 30
M  V30 32 1 13 31
M  V30 33 1 14 32
M  V30 END BOND
M  V30 END CTAB
M  END
>  <Dataset>  (669) 
OralDrugs

>  <Ligand_Instance>  (669) 
nan

>  <PDB_ID>  (669) 
nan

>  <Standardized_SMILES>  (669) 
CC1CS(=O)(=O)CCN1/N=C/c1ccc([N+](=O)[O-])o1

>  <Name>  (669) 
Nifurtimox

>  <Pocket>  (669) 
nan

>  <ATP_Site>  (669) 
nan

>  <Peripheral>  (669) 
nan

>  <Num_H_Atoms_ProtBoundConf>  (669) 
nan

>  <Num_Resolved_Atoms>  (669) 
nan

>  <Num_Not_Resolved_Atoms>  (669) 
nan

$$$$
CHEMBL255863
     RDKit          3D

  0  0  0  0  0  0  0  0  0  0999 V3000
M  V30 BEGIN CTAB
M  V30 COUNTS 61 65 0 0 0
M  V30 BEGIN ATOM
M  V30 1 C 4.201973 -4.998479 5.406961 0
M  V30 2 C 3.853459 -3.650299 4.878069 0
M  V30 3 C 3.806771 -3.357975 3.517054 0
M  V30 4 N 3.464526 -2.071044 3.395676 0
M  V30 5 C 3.312346 -1.396776 2.154200 0
M  V30 6 C 2.642818 -0.194376 2.136087 0
M  V30 7 C 2.500385 0.445145 0.926359 0
M  V30 8 N 1.833015 1.703093 0.680980 0
M  V30 9 C 0.469006 1.328863 0.406248 0
M  V30 10 O 0.373981 0.057041 0.487023 0
M  V30 11 C -0.619951 2.259052 0.087704 0
M  V30 12 C -0.520579 3.634245 -0.016072 0
M  V30 13 C -1.685383 4.293216 -0.340654 0
M  V30 14 C -2.912920 3.714342 -0.565290 0
M  V30 15 C -4.122158 4.506601 -0.909575 0
M  V30 16 C -2.973060 2.321536 -0.450774 0
M  V30 17 N -4.211558 1.624962 -0.688432 0
M  V30 18 C -4.264342 0.193953 -0.502261 0
M  V30 19 N -5.142006 -0.056019 0.475686 0
M  V30 20 C -5.342444 -1.355281 0.836603 0
M  V30 21 C -4.606587 -2.308689 0.143875 0
M  V30 22 C -3.707883 -2.035485 -0.860223 0
M  V30 23 C -2.922126 -3.011419 -1.591026 0
M  V30 24 C -2.063571 -2.548642 -2.562312 0
M  V30 25 C -1.337346 -3.540574 -3.219442 0
M  V30 26 C -1.447456 -4.890359 -2.941075 0
M  V30 27 N -2.294962 -5.308448 -1.986858 0
M  V30 28 C -3.018456 -4.359261 -1.327870 0
M  V30 29 N -3.560299 -0.754105 -1.161202 0
M  V30 30 C -1.834796 1.612062 -0.127405 0
M  V30 31 C 3.006300 -0.083099 -0.255415 0
M  V30 32 C 3.679270 -1.295082 -0.226644 0
M  V30 33 C 4.253549 -1.929624 -1.467667 0
M  V30 34 F 3.509407 -1.591706 -2.590427 0
M  V30 35 F 5.593985 -1.596974 -1.615976 0
M  V30 36 F 4.209831 -3.316907 -1.324906 0
M  V30 37 C 3.818861 -1.931245 0.988877 0
M  V30 38 C 3.304828 -1.582846 4.637433 0
M  V30 39 N 3.537215 -2.527368 5.535271 0
M  V30 40 H 4.948449 -5.438710 4.732083 0
M  V30 41 H 4.613196 -4.832117 6.423827 0
M  V30 42 H 3.276463 -5.631408 5.488272 0
M  V30 43 H 4.014226 -4.061752 2.704463 0
M  V30 44 H 2.212732 0.306573 2.982983 0
M  V30 45 H 2.057269 2.743619 0.648053 0
M  V30 46 H 0.443160 4.052551 0.163062 0
M  V30 47 H -1.573252 5.383634 -0.414588 0
M  V30 48 H -4.777850 4.647934 -0.025493 0
M  V30 49 H -3.780622 5.522898 -1.224230 0
M  V30 50 H -4.642926 4.070273 -1.787393 0
M  V30 51 H -5.042687 2.182580 -0.991554 0
M  V30 52 H -6.024082 -1.693310 1.611853 0
M  V30 53 H -4.755177 -3.358962 0.420967 0
M  V30 54 H -1.966738 -1.515596 -2.788087 0
M  V30 55 H -0.658705 -3.157165 -3.989005 0
M  V30 56 H -0.839832 -5.575963 -3.507277 0
M  V30 57 H -3.679655 -4.761087 -0.574568 0
M  V30 58 H -1.949207 0.553563 -0.053075 0
M  V30 59 H 2.929700 0.366405 -1.240460 0
M  V30 60 H 4.352739 -2.881447 0.979300 0
M  V30 61 H 3.031341 -0.585158 4.913695 0
M  V30 END ATOM
M  V30 BEGIN BOND
M  V30 1 1 1 2
M  V30 2 2 2 3
M  V30 3 1 3 4
M  V30 4 1 4 5
M  V30 5 2 5 6
M  V30 6 1 6 7
M  V30 7 1 7 8
M  V30 8 1 8 9
M  V30 9 2 9 10
M  V30 10 1 9 11
M  V30 11 2 11 12
M  V30 12 1 12 13
M  V30 13 2 13 14
M  V30 14 1 14 15
M  V30 15 1 14 16
M  V30 16 1 16 17
M  V30 17 1 17 18
M  V30 18 2 18 19
M  V30 19 1 19 20
M  V30 20 2 20 21
M  V30 21 1 21 22
M  V30 22 1 22 23
M  V30 23 2 23 24
M  V30 24 1 24 25
M  V30 25 2 25 26
M  V30 26 1 26 27
M  V30 27 2 27 28
M  V30 28 2 22 29
M  V30 29 2 16 30
M  V30 30 2 7 31
M  V30 31 1 31 32
M  V30 32 1 32 33
M  V30 33 1 33 34
M  V30 34 1 33 35
M  V30 35 1 33 36
M  V30 36 2 32 37
M  V30 37 1 4 38
M  V30 38 2 38 39
M  V30 39 1 39 2
M  V30 40 1 37 5
M  V30 41 1 30 11
M  V30 42 1 29 18
M  V30 43 1 28 23
M  V30 44 1 1 40
M  V30 45 1 1 41
M  V30 46 1 1 42
M  V30 47 1 3 43
M  V30 48 1 6 44
M  V30 49 1 8 45
M  V30 50 1 12 46
M  V30 51 1 13 47
M  V30 52 1 15 48
M  V30 53 1 15 49
M  V30 54 1 15 50
M  V30 55 1 17 51
M  V30 56 1 20 52
M  V30 57 1 21 53
M  V30 58 1 24 54
M  V30 59 1 25 55
M  V30 60 1 26 56
M  V30 61 1 28 57
M  V30 62 1 30 58
M  V30 63 1 31 59
M  V30 64 1 37 60
M  V30 65 1 38 61
M  V30 END BOND
M  V30 END CTAB
M  END
>  <Dataset>  (670) 
OralDrugs

>  <Ligand_Instance>  (670) 
nan

>  <PDB_ID>  (670) 
nan

>  <Standardized_SMILES>  (670) 
Cc1cn(-c2cc(NC(=O)c3ccc(C)c(Nc4nccc(-c5cccnc5)n4)c3)cc(C(F)(F)F)c2)cn1

>  <Name>  (670) 
Nilotinib

>  <Pocket>  (670) 
nan

>  <ATP_Site>  (670) 
nan

>  <Peripheral>  (670) 
nan

>  <Num_H_Atoms_ProtBoundConf>  (670) 
nan

>  <Num_Resolved_Atoms>  (670) 
nan

>  <Num_Not_Resolved_Atoms>  (670) 
nan

$$$$
CHEMBL1274
     RDKit          3D

  0  0  0  0  0  0  0  0  0  0999 V3000
M  V30 BEGIN CTAB
M  V30 COUNTS 32 33 0 0 0
M  V30 BEGIN ATOM
M  V30 1 C 0.565021 -4.061520 0.845154 0
M  V30 2 C 0.538734 -3.285005 2.141478 0
M  V30 3 C -0.118687 -4.022065 3.263471 0
M  V30 4 N 1.837992 -2.776011 2.530170 0
M  V30 5 C 2.043075 -1.568439 1.784594 0
M  V30 6 O 3.193127 -1.095744 1.603983 0
M  V30 7 N 0.795532 -1.065720 1.335602 0
M  V30 8 C 0.544661 0.096489 0.572814 0
M  V30 9 C 1.545578 0.943157 0.148864 0
M  V30 10 C 1.307524 2.090442 -0.604385 0
M  V30 11 C 0.011043 2.409542 -0.951809 0
M  V30 12 N -0.194326 3.589741 -1.721181 0 CHG=1 VAL=4
M  V30 13 O -1.036438 3.895791 -2.578919 0
M  V30 14 O 0.624247 4.687044 -1.594519 0 CHG=-1 VAL=1
M  V30 15 C -1.032126 1.599871 -0.556030 0
M  V30 16 C -2.434005 1.933407 -0.926329 0
M  V30 17 F -3.278663 0.948889 -0.391631 0
M  V30 18 F -2.568484 1.829831 -2.313882 0
M  V30 19 F -2.859440 3.136714 -0.458097 0
M  V30 20 C -0.727404 0.469921 0.193688 0
M  V30 21 C -0.164496 -1.991048 1.823425 0
M  V30 22 O -1.388268 -1.846833 1.991998 0
M  V30 23 H 1.511636 -3.833868 0.317568 0
M  V30 24 H 0.428894 -5.156025 1.008960 0
M  V30 25 H -0.284324 -3.761823 0.163251 0
M  V30 26 H -0.036752 -5.101175 3.050166 0
M  V30 27 H 0.469138 -3.807824 4.195897 0
M  V30 28 H -1.192147 -3.776992 3.387503 0
M  V30 29 H 2.496705 -3.217911 3.228345 0
M  V30 30 H 2.564061 0.765350 0.375704 0
M  V30 31 H 2.128004 2.741689 -0.924669 0
M  V30 32 H -1.591528 -0.114175 0.466188 0
M  V30 END ATOM
M  V30 BEGIN BOND
M  V30 1 1 1 2
M  V30 2 1 2 3
M  V30 3 1 2 4
M  V30 4 1 4 5
M  V30 5 2 5 6
M  V30 6 1 5 7
M  V30 7 1 7 8
M  V30 8 2 8 9
M  V30 9 1 9 10
M  V30 10 2 10 11
M  V30 11 1 11 12
M  V30 12 2 12 13
M  V30 13 1 12 14
M  V30 14 1 11 15
M  V30 15 1 15 16
M  V30 16 1 16 17
M  V30 17 1 16 18
M  V30 18 1 16 19
M  V30 19 2 15 20
M  V30 20 1 7 21
M  V30 21 2 21 22
M  V30 22 1 21 2
M  V30 23 1 20 8
M  V30 24 1 1 23
M  V30 25 1 1 24
M  V30 26 1 1 25
M  V30 27 1 3 26
M  V30 28 1 3 27
M  V30 29 1 3 28
M  V30 30 1 4 29
M  V30 31 1 9 30
M  V30 32 1 10 31
M  V30 33 1 20 32
M  V30 END BOND
M  V30 END CTAB
M  END
>  <Dataset>  (671) 
OralDrugs

>  <Ligand_Instance>  (671) 
nan

>  <PDB_ID>  (671) 
nan

>  <Standardized_SMILES>  (671) 
CC1(C)NC(=O)N(c2ccc([N+](=O)[O-])c(C(F)(F)F)c2)C1=O

>  <Name>  (671) 
Nilutamide

>  <Pocket>  (671) 
nan

>  <ATP_Site>  (671) 
nan

>  <Peripheral>  (671) 
nan

>  <Num_H_Atoms_ProtBoundConf>  (671) 
nan

>  <Num_Resolved_Atoms>  (671) 
nan

>  <Num_Not_Resolved_Atoms>  (671) 
nan

$$$$
CHEMBL1428
     RDKit          3D

  0  0  0  0  0  0  0  0  0  0999 V3000
M  V30 BEGIN CTAB
M  V30 COUNTS 56 57 0 0 0
M  V30 BEGIN ATOM
M  V30 1 C -4.402403 -4.943990 -3.348451 0
M  V30 2 O -4.031729 -4.056973 -2.363799 0
M  V30 3 C -3.708733 -4.685779 -1.143066 0
M  V30 4 C -3.309544 -3.623885 -0.110307 0
M  V30 5 O -2.206027 -2.961674 -0.637846 0
M  V30 6 C -1.496548 -1.930449 -0.076085 0
M  V30 7 O -1.995054 -1.629212 1.055609 0
M  V30 8 C -0.345261 -1.332668 -0.764999 0
M  V30 9 C 0.029778 -1.784734 -1.951881 0
M  V30 10 C -0.683575 -2.891038 -2.620097 0
M  V30 11 N 1.154783 -1.148590 -2.547703 0
M  V30 12 C 1.913325 -0.076752 -1.992770 0
M  V30 13 C 3.066670 0.521908 -2.683200 0
M  V30 14 C 1.477448 0.316578 -0.809877 0
M  V30 15 C 2.215021 1.414067 -0.188032 0
M  V30 16 O 3.203895 1.979717 -0.702138 0
M  V30 17 O 1.902873 1.960749 1.053408 0
M  V30 18 C 2.655885 3.029597 1.611453 0
M  V30 19 C 1.813550 4.255323 1.855158 0
M  V30 20 C 3.251990 2.595398 2.912795 0
M  V30 21 C 0.333524 -0.228352 -0.052345 0
M  V30 22 C -0.580683 0.902856 0.243811 0
M  V30 23 C -0.914988 1.358835 1.511638 0
M  V30 24 C -1.780304 2.424835 1.663606 0
M  V30 25 C -2.296251 3.015944 0.535358 0
M  V30 26 C -1.979326 2.581040 -0.738707 0
M  V30 27 N -2.532784 3.217423 -1.886421 0 CHG=1 VAL=4
M  V30 28 O -3.313333 4.179849 -1.726485 0
M  V30 29 O -2.200623 2.764893 -3.131804 0 CHG=-1 VAL=1
M  V30 30 C -1.116579 1.519139 -0.864652 0
M  V30 31 H -4.640608 -4.366550 -4.278155 0
M  V30 32 H -3.571343 -5.621878 -3.645812 0
M  V30 33 H -5.323575 -5.521399 -3.124932 0
M  V30 34 H -2.788002 -5.264964 -1.341313 0
M  V30 35 H -4.552502 -5.302867 -0.782763 0
M  V30 36 H -3.093379 -4.179115 0.826603 0
M  V30 37 H -4.155721 -2.947921 0.097264 0
M  V30 38 H -0.166270 -3.093532 -3.595553 0
M  V30 39 H -1.718754 -2.647374 -2.902302 0
M  V30 40 H -0.601873 -3.868200 -2.076351 0
M  V30 41 H 1.432697 -1.527876 -3.493107 0
M  V30 42 H 2.907701 1.570786 -2.984498 0
M  V30 43 H 4.041795 0.351785 -2.155483 0
M  V30 44 H 3.196032 -0.033350 -3.650278 0
M  V30 45 H 3.482972 3.340539 0.940177 0
M  V30 46 H 2.232885 4.840851 2.724312 0
M  V30 47 H 0.761702 4.062052 2.065193 0
M  V30 48 H 1.893764 4.952130 0.975743 0
M  V30 49 H 3.536272 1.517919 2.942833 0
M  V30 50 H 4.184487 3.174087 3.076128 0
M  V30 51 H 2.575538 2.744798 3.777863 0
M  V30 52 H 0.691420 -0.631513 0.925597 0
M  V30 53 H -0.447504 0.816469 2.347526 0
M  V30 54 H -2.019736 2.755558 2.685442 0
M  V30 55 H -2.971226 3.846538 0.628544 0
M  V30 56 H -0.893088 1.208245 -1.878242 0
M  V30 END ATOM
M  V30 BEGIN BOND
M  V30 1 1 1 2
M  V30 2 1 2 3
M  V30 3 1 3 4
M  V30 4 1 4 5
M  V30 5 1 5 6
M  V30 6 2 6 7
M  V30 7 1 6 8
M  V30 8 2 8 9
M  V30 9 1 9 10
M  V30 10 1 9 11
M  V30 11 1 11 12
M  V30 12 1 12 13
M  V30 13 2 12 14
M  V30 14 1 14 15
M  V30 15 2 15 16
M  V30 16 1 15 17
M  V30 17 1 17 18
M  V30 18 1 18 19
M  V30 19 1 18 20
M  V30 20 1 14 21
M  V30 21 1 21 22
M  V30 22 2 22 23
M  V30 23 1 23 24
M  V30 24 2 24 25
M  V30 25 1 25 26
M  V30 26 1 26 27
M  V30 27 2 27 28
M  V30 28 1 27 29
M  V30 29 2 26 30
M  V30 30 1 21 8
M  V30 31 1 30 22
M  V30 32 1 1 31
M  V30 33 1 1 32
M  V30 34 1 1 33
M  V30 35 1 3 34
M  V30 36 1 3 35
M  V30 37 1 4 36
M  V30 38 1 4 37
M  V30 39 1 10 38
M  V30 40 1 10 39
M  V30 41 1 10 40
M  V30 42 1 11 41
M  V30 43 1 13 42
M  V30 44 1 13 43
M  V30 45 1 13 44
M  V30 46 1 18 45
M  V30 47 1 19 46
M  V30 48 1 19 47
M  V30 49 1 19 48
M  V30 50 1 20 49
M  V30 51 1 20 50
M  V30 52 1 20 51
M  V30 53 1 21 52
M  V30 54 1 23 53
M  V30 55 1 24 54
M  V30 56 1 25 55
M  V30 57 1 30 56
M  V30 END BOND
M  V30 END CTAB
M  END
>  <Dataset>  (672) 
OralDrugs

>  <Ligand_Instance>  (672) 
nan

>  <PDB_ID>  (672) 
nan

>  <Standardized_SMILES>  (672) 
COCCOC(=O)C1=C(C)NC(C)=C(C(=O)OC(C)C)C1c1cccc([N+](=O)[O-])c1

>  <Name>  (672) 
Nimodipine

>  <Pocket>  (672) 
nan

>  <ATP_Site>  (672) 
nan

>  <Peripheral>  (672) 
nan

>  <Num_H_Atoms_ProtBoundConf>  (672) 
nan

>  <Num_Resolved_Atoms>  (672) 
nan

>  <Num_Not_Resolved_Atoms>  (672) 
nan

$$$$
CHEMBL502835
     RDKit          3D

  0  0  0  0  0  0  0  0  0  0999 V3000
M  V30 BEGIN CTAB
M  V30 COUNTS 73 77 0 0 0
M  V30 BEGIN ATOM
M  V30 1 C 7.270679 1.603158 5.033253 0
M  V30 2 O 6.426676 1.454796 3.903637 0
M  V30 3 C 5.734773 2.475339 3.298577 0
M  V30 4 O 5.890922 3.626215 3.822454 0
M  V30 5 C 4.880761 2.258926 2.136412 0
M  V30 6 C 4.698987 1.021981 1.549872 0
M  V30 7 C 3.870437 0.864170 0.436889 0
M  V30 8 C 3.229421 1.959992 -0.079748 0
M  V30 9 C 3.378585 3.212839 0.473014 0
M  V30 10 C 4.209079 3.341424 1.580455 0
M  V30 11 N 2.578291 4.139627 -0.245142 0
M  V30 12 C 1.896224 3.458946 -1.290600 0
M  V30 13 O 1.110298 3.945877 -2.120208 0
M  V30 14 C 2.311063 2.043858 -1.196961 0
M  V30 15 C 1.976846 1.079594 -2.029183 0
M  V30 16 N 1.038312 1.433806 -3.029408 0
M  V30 17 C -0.187728 0.758276 -2.777999 0
M  V30 18 C -0.769244 -0.220505 -3.557125 0
M  V30 19 C -1.959461 -0.816277 -3.198261 0
M  V30 20 C -2.635858 -0.471903 -2.046694 0
M  V30 21 N -3.864799 -0.999196 -1.564979 0
M  V30 22 C -5.152022 -0.437831 -1.854364 0
M  V30 23 C -3.575691 -2.137989 -0.781591 0
M  V30 24 O -2.434530 -1.757340 -1.202633 0
M  V30 25 C -3.370886 -3.310255 0.036693 0
M  V30 26 N -4.532635 -3.883066 0.619785 0
M  V30 27 C -4.293172 -5.091499 1.341591 0
M  V30 28 C -4.296891 -4.733600 2.831509 0
M  V30 29 N -5.682701 -4.473434 3.178111 0
M  V30 30 C -5.856603 -3.800116 4.425859 0
M  V30 31 C -6.377507 -3.778640 2.124273 0
M  V30 32 C -5.438077 -2.982043 1.244197 0
M  V30 33 C -2.079209 0.516789 -1.229349 0
M  V30 34 C -0.878781 1.093586 -1.624752 0
M  V30 35 C 2.556928 -0.237821 -2.090407 0
M  V30 36 C 2.055044 -1.513228 -1.939476 0
M  V30 37 C 2.869339 -2.603652 -2.154760 0
M  V30 38 C 4.187542 -2.490391 -2.520736 0
M  V30 39 C 4.711014 -1.230894 -2.677761 0
M  V30 40 C 3.913121 -0.100186 -2.467738 0
M  V30 41 H 7.650148 2.634920 5.050472 0
M  V30 42 H 8.114073 0.859225 4.950957 0
M  V30 43 H 6.688646 1.347313 5.936430 0
M  V30 44 H 5.265040 0.241397 2.055852 0
M  V30 45 H 3.846615 -0.150954 0.166249 0
M  V30 46 H 4.300970 4.341624 1.984242 0
M  V30 47 H 2.499286 5.159396 -0.044831 0
M  V30 48 H 1.283334 2.093768 -3.800520 0
M  V30 49 H -0.248313 -0.492915 -4.452497 0
M  V30 50 H -2.426346 -1.580018 -3.795191 0
M  V30 51 H -5.930130 -0.640342 -1.096360 0
M  V30 52 H -5.484417 -0.793737 -2.871548 0
M  V30 53 H -5.055449 0.686423 -1.851449 0
M  V30 54 H -2.633659 -3.129148 0.874087 0
M  V30 55 H -2.889385 -4.110977 -0.576680 0
M  V30 56 H -5.059523 -5.826415 1.097701 0
M  V30 57 H -3.307112 -5.501164 1.048527 0
M  V30 58 H -3.955591 -5.597796 3.392556 0
M  V30 59 H -3.672108 -3.830996 2.973888 0
M  V30 60 H -6.929300 -3.636566 4.609715 0
M  V30 61 H -5.499708 -4.430553 5.270461 0
M  V30 62 H -5.256864 -2.848726 4.445966 0
M  V30 63 H -6.856621 -4.565127 1.476140 0
M  V30 64 H -7.199053 -3.148687 2.523734 0
M  V30 65 H -4.837784 -2.326162 1.931996 0
M  V30 66 H -5.949455 -2.378703 0.505842 0
M  V30 67 H -2.560893 0.839659 -0.302203 0
M  V30 68 H -0.486973 1.856903 -0.956263 0
M  V30 69 H 1.024269 -1.464424 -1.652310 0
M  V30 70 H 2.371552 -3.556648 -2.008072 0
M  V30 71 H 4.785518 -3.387006 -2.677314 0
M  V30 72 H 5.752156 -1.198432 -2.966123 0
M  V30 73 H 4.489262 0.809910 -2.637032 0
M  V30 END ATOM
M  V30 BEGIN BOND
M  V30 1 1 1 2
M  V30 2 1 2 3
M  V30 3 2 3 4
M  V30 4 1 3 5
M  V30 5 2 5 6
M  V30 6 1 6 7
M  V30 7 2 7 8
M  V30 8 1 8 9
M  V30 9 2 9 10
M  V30 10 1 9 11
M  V30 11 1 11 12
M  V30 12 2 12 13
M  V30 13 1 12 14
M  V30 14 2 14 15
M  V30 15 1 15 16
M  V30 16 1 16 17
M  V30 17 2 17 18
M  V30 18 1 18 19
M  V30 19 2 19 20
M  V30 20 1 20 21
M  V30 21 1 21 22
M  V30 22 1 21 23
M  V30 23 2 23 24
M  V30 24 1 23 25
M  V30 25 1 25 26
M  V30 26 1 26 27
M  V30 27 1 27 28
M  V30 28 1 28 29
M  V30 29 1 29 30
M  V30 30 1 29 31
M  V30 31 1 31 32
M  V30 32 1 20 33
M  V30 33 2 33 34
M  V30 34 1 15 35
M  V30 35 2 35 36
M  V30 36 1 36 37
M  V30 37 2 37 38
M  V30 38 1 38 39
M  V30 39 2 39 40
M  V30 40 1 10 5
M  V30 41 1 34 17
M  V30 42 1 40 35
M  V30 43 1 14 8
M  V30 44 1 32 26
M  V30 45 1 1 41
M  V30 46 1 1 42
M  V30 47 1 1 43
M  V30 48 1 6 44
M  V30 49 1 7 45
M  V30 50 1 10 46
M  V30 51 1 11 47
M  V30 52 1 16 48
M  V30 53 1 18 49
M  V30 54 1 19 50
M  V30 55 1 22 51
M  V30 56 1 22 52
M  V30 57 1 22 53
M  V30 58 1 25 54
M  V30 59 1 25 55
M  V30 60 1 27 56
M  V30 61 1 27 57
M  V30 62 1 28 58
M  V30 63 1 28 59
M  V30 64 1 30 60
M  V30 65 1 30 61
M  V30 66 1 30 62
M  V30 67 1 31 63
M  V30 68 1 31 64
M  V30 69 1 32 65
M  V30 70 1 32 66
M  V30 71 1 33 67
M  V30 72 1 34 68
M  V30 73 1 36 69
M  V30 74 1 37 70
M  V30 75 1 38 71
M  V30 76 1 39 72
M  V30 77 1 40 73
M  V30 END BOND
M  V30 END CTAB
M  END
>  <Dataset>  (673) 
OralDrugs

>  <Ligand_Instance>  (673) 
nan

>  <PDB_ID>  (673) 
nan

>  <Standardized_SMILES>  (673) 
COC(=O)c1ccc2c(c1)NC(=O)/C2=C(\Nc1ccc(N(C)C(=O)CN2CCN(C)CC2)cc1)c1ccccc1

>  <Name>  (673) 
Nintedanib

>  <Pocket>  (673) 
nan

>  <ATP_Site>  (673) 
nan

>  <Peripheral>  (673) 
nan

>  <Num_H_Atoms_ProtBoundConf>  (673) 
nan

>  <Num_Resolved_Atoms>  (673) 
nan

>  <Num_Not_Resolved_Atoms>  (673) 
nan

$$$$
CHEMBL1094636
     RDKit          3D

  0  0  0  0  0  0  0  0  0  0999 V3000
M  V30 BEGIN CTAB
M  V30 COUNTS 44 47 0 0 0
M  V30 BEGIN ATOM
M  V30 1 N 2.253017 -4.637036 -0.499476 0
M  V30 2 C 3.655613 -4.691860 -0.779934 0
M  V30 3 O 4.260486 -5.765079 -1.001803 0
M  V30 4 C 4.415767 -3.436940 -0.808412 0
M  V30 5 C 5.768895 -3.469869 -1.077079 0
M  V30 6 C 6.540495 -2.316182 -1.117560 0
M  V30 7 C 5.897138 -1.097360 -0.874145 0
M  V30 8 C 4.543574 -1.063628 -0.605313 0
M  V30 9 C 3.645118 -0.045909 -0.331178 0
M  V30 10 N 2.415689 -0.561008 -0.139467 0
M  V30 11 C 1.160766 0.047800 0.165309 0
M  V30 12 C 0.586512 1.108170 -0.544045 0
M  V30 13 C -0.637634 1.614661 -0.151867 0
M  V30 14 C -1.340850 1.112657 0.934385 0
M  V30 15 C -2.640941 1.693947 1.303827 0 CFG=2
M  V30 16 C -2.739849 2.196498 2.705575 0
M  V30 17 C -3.604495 1.339307 3.605769 0
M  V30 18 C -4.996559 1.178773 3.086222 0
M  V30 19 N -4.993883 1.254961 1.657688 0
M  V30 20 C -3.781592 0.708938 1.092282 0
M  V30 21 C -0.747212 0.064777 1.615262 0
M  V30 22 C 0.476302 -0.466615 1.250600 0
M  V30 23 N 2.516629 -1.874620 -0.285568 0
M  V30 24 C 3.791063 -2.228040 -0.569609 0
M  V30 25 H 2.150105 -5.210376 0.375571 0
M  V30 26 H 1.774196 -4.053746 -1.239290 0
M  V30 27 H 6.309917 -4.382715 -1.270992 0
M  V30 28 H 7.597672 -2.348584 -1.328103 0
M  V30 29 H 6.452601 -0.151582 -0.892209 0
M  V30 30 H 3.849194 1.011988 -0.269503 0
M  V30 31 H 1.156257 1.479706 -1.385911 0
M  V30 32 H -1.045344 2.445132 -0.739773 0
M  V30 33 H -2.840202 2.517254 0.563488 0
M  V30 34 H -3.169599 3.237270 2.686566 0
M  V30 35 H -1.768254 2.313106 3.225564 0
M  V30 36 H -3.103050 0.367809 3.784505 0
M  V30 37 H -3.631728 1.896137 4.584025 0
M  V30 38 H -5.651689 1.965826 3.537167 0
M  V30 39 H -5.412795 0.217578 3.479724 0
M  V30 40 H -5.813223 0.738839 1.276473 0
M  V30 41 H -3.561149 -0.267938 1.566778 0
M  V30 42 H -3.994247 0.544960 0.005574 0
M  V30 43 H -1.240020 -0.364533 2.460664 0
M  V30 44 H 0.895193 -1.293295 1.825806 0
M  V30 END ATOM
M  V30 BEGIN BOND
M  V30 1 1 1 2
M  V30 2 2 2 3
M  V30 3 1 2 4
M  V30 4 2 4 5
M  V30 5 1 5 6
M  V30 6 2 6 7
M  V30 7 1 7 8
M  V30 8 2 8 9
M  V30 9 1 9 10
M  V30 10 1 10 11
M  V30 11 2 11 12
M  V30 12 1 12 13
M  V30 13 2 13 14
M  V30 14 1 14 15
M  V30 15 1 15 16
M  V30 16 1 16 17
M  V30 17 1 17 18
M  V30 18 1 18 19
M  V30 19 1 19 20
M  V30 20 1 14 21
M  V30 21 2 21 22
M  V30 22 1 10 23
M  V30 23 2 23 24
M  V30 24 1 24 4
M  V30 25 1 24 8
M  V30 26 1 22 11
M  V30 27 1 20 15
M  V30 28 1 1 25
M  V30 29 1 1 26
M  V30 30 1 5 27
M  V30 31 1 6 28
M  V30 32 1 7 29
M  V30 33 1 9 30
M  V30 34 1 12 31
M  V30 35 1 13 32
M  V30 36 1 15 33 CFG=3
M  V30 37 1 16 34
M  V30 38 1 16 35
M  V30 39 1 17 36
M  V30 40 1 17 37
M  V30 41 1 18 38
M  V30 42 1 18 39
M  V30 43 1 19 40
M  V30 44 1 20 41
M  V30 45 1 20 42
M  V30 46 1 21 43
M  V30 47 1 22 44
M  V30 END BOND
M  V30 END CTAB
M  END
>  <Dataset>  (674) 
OralDrugs

>  <Ligand_Instance>  (674) 
nan

>  <PDB_ID>  (674) 
nan

>  <Standardized_SMILES>  (674) 
NC(=O)c1cccc2cn(-c3ccc([C@@H]4CCCNC4)cc3)nc12

>  <Name>  (674) 
Niraparib

>  <Pocket>  (674) 
nan

>  <ATP_Site>  (674) 
nan

>  <Peripheral>  (674) 
nan

>  <Num_H_Atoms_ProtBoundConf>  (674) 
nan

>  <Num_Resolved_Atoms>  (674) 
nan

>  <Num_Not_Resolved_Atoms>  (674) 
nan

$$$$
CHEMBL4802135
     RDKit          3D

  0  0  0  0  0  0  0  0  0  0999 V3000
M  V30 BEGIN CTAB
M  V30 COUNTS 67 69 0 0 0
M  V30 BEGIN ATOM
M  V30 1 C -2.060268 1.587586 1.534803 0
M  V30 2 C -0.687758 1.553969 2.164131 0
M  V30 3 C -0.331549 2.936832 2.584213 0
M  V30 4 C -0.839637 0.729456 3.449988 0
M  V30 5 C 0.308547 0.842940 1.327403 0 CFG=2
M  V30 6 N 1.628428 0.838676 1.996355 0
M  V30 7 C 2.307933 -0.328874 2.469476 0
M  V30 8 O 1.691011 -1.410997 2.276439 0
M  V30 9 C 3.643785 -0.096513 3.120462 0
M  V30 10 F 4.428054 0.506364 2.141670 0
M  V30 11 F 4.198741 -1.333970 3.381636 0
M  V30 12 F 3.513117 0.686068 4.242607 0
M  V30 13 C 0.552319 1.330256 -0.013502 0
M  V30 14 O 1.793617 1.552362 0.000996 0
M  V30 15 N -0.065857 1.623807 -1.246079 0
M  V30 16 C 0.946623 2.121971 -2.186091 0
M  V30 17 C 0.214787 2.343523 -3.476559 0 CFG=1
M  V30 18 C -1.236957 2.194650 -3.223152 0 CFG=1
M  V30 19 C -1.352168 1.594514 -1.882434 0 CFG=1
M  V30 20 C -1.735045 0.156255 -2.036894 0
M  V30 21 O -2.872632 0.115314 -2.619267 0
M  V30 22 N -0.985290 -0.953074 -1.619811 0
M  V30 23 C -1.514625 -2.312858 -1.851912 0 CFG=2
M  V30 24 C -1.760149 -2.930796 -0.559058 0
M  V30 25 N -1.966198 -3.413071 0.494794 0
M  V30 26 C -0.595718 -3.103150 -2.717770 0
M  V30 27 C -1.040075 -4.495962 -3.030988 0 CFG=2
M  V30 28 C -1.216049 -5.383010 -1.847597 0
M  V30 29 C -0.866272 -6.790622 -2.318532 0
M  V30 30 N -0.087885 -6.564394 -3.547191 0
M  V30 31 C 0.028263 -5.165577 -3.840047 0
M  V30 32 O 0.904893 -4.770310 -4.635392 0
M  V30 33 C -0.677973 3.523072 -3.509190 0
M  V30 34 C -0.510736 4.574733 -2.454377 0
M  V30 35 C -0.968487 4.086937 -4.885249 0
M  V30 36 H -2.247532 2.557484 1.016152 0
M  V30 37 H -2.168292 0.794016 0.767887 0
M  V30 38 H -2.862507 1.382949 2.277432 0
M  V30 39 H 0.712510 3.125399 2.826392 0
M  V30 40 H -0.895015 3.162799 3.537080 0
M  V30 41 H -0.775935 3.678589 1.857171 0
M  V30 42 H 0.137664 0.417986 3.861393 0
M  V30 43 H -1.380052 1.338405 4.175816 0
M  V30 44 H -1.467392 -0.139806 3.151161 0
M  V30 45 H 0.028024 -0.237675 1.302613 0
M  V30 46 H 2.053488 1.770270 2.108470 0
M  V30 47 H 1.481047 3.005520 -1.823248 0
M  V30 48 H 1.696088 1.327848 -2.383985 0
M  V30 49 H 0.586292 1.864293 -4.407888 0
M  V30 50 H -1.925582 1.740001 -3.995025 0
M  V30 51 H -2.158316 2.116531 -1.328473 0
M  V30 52 H -0.072457 -0.764450 -1.157028 0
M  V30 53 H -2.488836 -2.213717 -2.370597 0
M  V30 54 H 0.420830 -3.204504 -2.226426 0
M  V30 55 H -0.417610 -2.599458 -3.710505 0
M  V30 56 H -1.974397 -4.526628 -3.635428 0
M  V30 57 H -0.454789 -5.100427 -1.090860 0
M  V30 58 H -2.230361 -5.377950 -1.439243 0
M  V30 59 H -0.248822 -7.299881 -1.564336 0
M  V30 60 H -1.792699 -7.338582 -2.514582 0
M  V30 61 H 0.285496 -7.385304 -4.062010 0
M  V30 62 H 0.341391 5.242960 -2.745272 0
M  V30 63 H -1.406548 5.253887 -2.409948 0
M  V30 64 H -0.276502 4.198437 -1.448992 0
M  V30 65 H -1.422129 5.113040 -4.801724 0
M  V30 66 H -0.042474 4.169792 -5.485774 0
M  V30 67 H -1.656495 3.415592 -5.461398 0
M  V30 END ATOM
M  V30 BEGIN BOND
M  V30 1 1 1 2
M  V30 2 1 2 3
M  V30 3 1 2 4
M  V30 4 1 2 5
M  V30 5 1 5 6
M  V30 6 1 6 7
M  V30 7 2 7 8
M  V30 8 1 7 9
M  V30 9 1 9 10
M  V30 10 1 9 11
M  V30 11 1 9 12
M  V30 12 1 5 13
M  V30 13 2 13 14
M  V30 14 1 13 15
M  V30 15 1 15 16
M  V30 16 1 16 17
M  V30 17 1 17 18
M  V30 18 1 18 19
M  V30 19 1 19 20
M  V30 20 2 20 21
M  V30 21 1 20 22
M  V30 22 1 22 23
M  V30 23 1 23 24
M  V30 24 3 24 25
M  V30 25 1 23 26
M  V30 26 1 26 27
M  V30 27 1 27 28
M  V30 28 1 28 29
M  V30 29 1 29 30
M  V30 30 1 30 31
M  V30 31 2 31 32
M  V30 32 1 18 33
M  V30 33 1 33 34
M  V30 34 1 33 35
M  V30 35 1 19 15
M  V30 36 1 31 27
M  V30 37 1 33 17
M  V30 38 1 1 36
M  V30 39 1 1 37
M  V30 40 1 1 38
M  V30 41 1 3 39
M  V30 42 1 3 40
M  V30 43 1 3 41
M  V30 44 1 4 42
M  V30 45 1 4 43
M  V30 46 1 4 44
M  V30 47 1 5 45 CFG=3
M  V30 48 1 6 46
M  V30 49 1 16 47
M  V30 50 1 16 48
M  V30 51 1 17 49 CFG=3
M  V30 52 1 18 50 CFG=3
M  V30 53 1 19 51 CFG=1
M  V30 54 1 22 52
M  V30 55 1 23 53 CFG=3
M  V30 56 1 26 54
M  V30 57 1 26 55
M  V30 58 1 27 56 CFG=3
M  V30 59 1 28 57
M  V30 60 1 28 58
M  V30 61 1 29 59
M  V30 62 1 29 60
M  V30 63 1 30 61
M  V30 64 1 34 62
M  V30 65 1 34 63
M  V30 66 1 34 64
M  V30 67 1 35 65
M  V30 68 1 35 66
M  V30 69 1 35 67
M  V30 END BOND
M  V30 END CTAB
M  END
>  <Dataset>  (675) 
OralDrugs

>  <Ligand_Instance>  (675) 
nan

>  <PDB_ID>  (675) 
nan

>  <Standardized_SMILES>  (675) 
CC(C)(C)[C@H](NC(=O)C(F)(F)F)C(=O)N1C[C@H]2[C@@H]([C@H]1C(=O)N[C@H](C#N)C[C@@H]1CCNC1=O)C2(C)C

>  <Name>  (675) 
Nirmatrelvir

>  <Pocket>  (675) 
nan

>  <ATP_Site>  (675) 
nan

>  <Peripheral>  (675) 
nan

>  <Num_H_Atoms_ProtBoundConf>  (675) 
nan

>  <Num_Resolved_Atoms>  (675) 
nan

>  <Num_Not_Resolved_Atoms>  (675) 
nan

$$$$
CHEMBL1726
     RDKit          3D

  0  0  0  0  0  0  0  0  0  0999 V3000
M  V30 BEGIN CTAB
M  V30 COUNTS 52 53 0 0 0
M  V30 BEGIN ATOM
M  V30 1 C 0.089539 -5.285294 -1.578009 0
M  V30 2 O 0.193551 -3.979904 -1.101784 0
M  V30 3 C 1.334563 -3.243810 -1.023391 0
M  V30 4 O 1.897805 -4.253337 -1.504635 0
M  V30 5 C 1.782164 -1.930371 -0.604444 0
M  V30 6 C 3.097899 -1.756313 -0.768812 0
M  V30 7 C 3.982297 -2.812826 -1.324072 0
M  V30 8 N 3.596205 -0.478725 -0.367932 0
M  V30 9 C 2.798208 0.566718 0.171677 0
M  V30 10 C 3.348904 1.883776 0.578400 0
M  V30 11 C 1.516851 0.262365 0.279859 0
M  V30 12 C 0.671610 1.289133 0.821052 0
M  V30 13 O 1.024973 2.435573 1.198084 0
M  V30 14 O -0.697289 1.206957 1.029404 0
M  V30 15 C -1.415704 2.298192 1.572619 0
M  V30 16 C -2.888855 1.978730 1.709931 0
M  V30 17 C -3.650688 3.141851 2.288027 0
M  V30 18 C -3.452933 1.632034 0.354094 0
M  V30 19 C 0.798935 -0.985688 -0.075412 0
M  V30 20 C -0.039949 -1.478901 1.033856 0
M  V30 21 C 0.560888 -1.515561 2.277923 0
M  V30 22 C -0.134569 -1.968277 3.377817 0
M  V30 23 C -1.441643 -2.404373 3.317591 0
M  V30 24 C -2.045711 -2.369358 2.077392 0
M  V30 25 C -1.345715 -1.915016 0.977714 0
M  V30 26 N -1.958063 -1.864811 -0.304426 0 CHG=1 VAL=4
M  V30 27 O -2.779028 -2.383438 -1.049618 0
M  V30 28 O -2.925594 -2.646877 -0.898412 0 CHG=-1 VAL=1
M  V30 29 H 0.484008 -5.437426 -2.608451 0
M  V30 30 H 0.699255 -5.937889 -0.890280 0
M  V30 31 H -0.965204 -5.584891 -1.501333 0
M  V30 32 H 3.691534 -3.044368 -2.370195 0
M  V30 33 H 4.013803 -3.721186 -0.683406 0
M  V30 34 H 5.011217 -2.350554 -1.388933 0
M  V30 35 H 4.631057 -0.294511 -0.479198 0
M  V30 36 H 4.456567 1.857954 0.363671 0
M  V30 37 H 3.279454 2.035928 1.665063 0
M  V30 38 H 2.982284 2.727696 -0.038655 0
M  V30 39 H -1.005397 2.518133 2.589757 0
M  V30 40 H -1.302964 3.216193 0.954314 0
M  V30 41 H -3.027735 1.112320 2.387977 0
M  V30 42 H -3.108350 4.096778 2.153603 0
M  V30 43 H -3.790395 2.982440 3.388676 0
M  V30 44 H -4.695384 3.210097 1.880083 0
M  V30 45 H -4.542095 1.410604 0.445528 0
M  V30 46 H -3.346918 2.519435 -0.328448 0
M  V30 47 H -2.931265 0.745241 -0.027162 0
M  V30 48 H 0.094730 -0.720841 -0.895586 0
M  V30 49 H 1.603528 -1.185048 2.415487 0
M  V30 50 H 0.309843 -2.010335 4.373389 0
M  V30 51 H -2.022914 -2.766816 4.154397 0
M  V30 52 H -3.072966 -2.697946 1.958900 0
M  V30 END ATOM
M  V30 BEGIN BOND
M  V30 1 1 1 2
M  V30 2 1 2 3
M  V30 3 2 3 4
M  V30 4 1 3 5
M  V30 5 2 5 6
M  V30 6 1 6 7
M  V30 7 1 6 8
M  V30 8 1 8 9
M  V30 9 1 9 10
M  V30 10 2 9 11
M  V30 11 1 11 12
M  V30 12 2 12 13
M  V30 13 1 12 14
M  V30 14 1 14 15
M  V30 15 1 15 16
M  V30 16 1 16 17
M  V30 17 1 16 18
M  V30 18 1 11 19
M  V30 19 1 19 20
M  V30 20 2 20 21
M  V30 21 1 21 22
M  V30 22 2 22 23
M  V30 23 1 23 24
M  V30 24 2 24 25
M  V30 25 1 25 26
M  V30 26 2 26 27
M  V30 27 1 26 28
M  V30 28 1 19 5
M  V30 29 1 25 20
M  V30 30 1 1 29
M  V30 31 1 1 30
M  V30 32 1 1 31
M  V30 33 1 7 32
M  V30 34 1 7 33
M  V30 35 1 7 34
M  V30 36 1 8 35
M  V30 37 1 10 36
M  V30 38 1 10 37
M  V30 39 1 10 38
M  V30 40 1 15 39
M  V30 41 1 15 40
M  V30 42 1 16 41
M  V30 43 1 17 42
M  V30 44 1 17 43
M  V30 45 1 17 44
M  V30 46 1 18 45
M  V30 47 1 18 46
M  V30 48 1 18 47
M  V30 49 1 19 48
M  V30 50 1 21 49
M  V30 51 1 22 50
M  V30 52 1 23 51
M  V30 53 1 24 52
M  V30 END BOND
M  V30 END CTAB
M  END
>  <Dataset>  (676) 
OralDrugs

>  <Ligand_Instance>  (676) 
nan

>  <PDB_ID>  (676) 
nan

>  <Standardized_SMILES>  (676) 
COC(=O)C1=C(C)NC(C)=C(C(=O)OCC(C)C)C1c1ccccc1[N+](=O)[O-]

>  <Name>  (676) 
Nisoldipine

>  <Pocket>  (676) 
nan

>  <ATP_Site>  (676) 
nan

>  <Peripheral>  (676) 
nan

>  <Num_H_Atoms_ProtBoundConf>  (676) 
nan

>  <Num_Resolved_Atoms>  (676) 
nan

>  <Num_Not_Resolved_Atoms>  (676) 
nan

$$$$
CHEMBL1337
     RDKit          3D

  0  0  0  0  0  0  0  0  0  0999 V3000
M  V30 BEGIN CTAB
M  V30 COUNTS 33 34 0 0 0
M  V30 BEGIN ATOM
M  V30 1 O -0.688785 -3.167075 2.394285 0
M  V30 2 C 0.044781 -2.749134 1.485501 0
M  V30 3 C -0.302190 -3.171918 0.086939 0
M  V30 4 C 0.776294 -3.975128 -0.544387 0
M  V30 5 C 2.172428 -3.650434 -0.167624 0
M  V30 6 C 2.366886 -2.814179 1.020231 0
M  V30 7 O 3.406431 -2.974473 1.640290 0
M  V30 8 C 1.270967 -1.887621 1.303918 0
M  V30 9 C 1.065027 -0.843838 0.309119 0
M  V30 10 O 1.784988 -1.018855 -0.726908 0
M  V30 11 C 0.196076 0.317651 0.326075 0
M  V30 12 C 0.151426 1.143800 -0.777695 0
M  V30 13 C -0.643049 2.263093 -0.874312 0
M  V30 14 C -1.441086 2.567797 0.208293 0
M  V30 15 C -2.304102 3.765773 0.127586 0
M  V30 16 F -2.569627 4.326296 1.363522 0
M  V30 17 F -1.755784 4.766690 -0.644805 0
M  V30 18 F -3.552359 3.467167 -0.429970 0
M  V30 19 C -1.467806 1.805182 1.357120 0
M  V30 20 C -0.636228 0.708265 1.351271 0
M  V30 21 N -0.638744 -0.081903 2.530542 0 CHG=1 VAL=4
M  V30 22 O -0.815679 0.242296 3.722780 0
M  V30 23 O -0.831569 0.260025 3.846681 0 CHG=-1 VAL=1
M  V30 24 H -1.218283 -3.798418 0.103741 0
M  V30 25 H -0.526444 -2.274264 -0.523262 0
M  V30 26 H 0.554495 -5.073986 -0.417096 0
M  V30 27 H 0.666744 -3.820386 -1.658392 0
M  V30 28 H 2.713734 -3.138225 -1.016895 0
M  V30 29 H 2.729332 -4.630185 -0.064515 0
M  V30 30 H 1.401646 -1.393769 2.296331 0
M  V30 31 H 0.764026 0.935916 -1.647444 0
M  V30 32 H -0.643592 2.877837 -1.758121 0
M  V30 33 H -2.088974 2.033931 2.212308 0
M  V30 END ATOM
M  V30 BEGIN BOND
M  V30 1 2 1 2
M  V30 2 1 2 3
M  V30 3 1 3 4
M  V30 4 1 4 5
M  V30 5 1 5 6
M  V30 6 2 6 7
M  V30 7 1 6 8
M  V30 8 1 8 9
M  V30 9 2 9 10
M  V30 10 1 9 11
M  V30 11 2 11 12
M  V30 12 1 12 13
M  V30 13 2 13 14
M  V30 14 1 14 15
M  V30 15 1 15 16
M  V30 16 1 15 17
M  V30 17 1 15 18
M  V30 18 1 14 19
M  V30 19 2 19 20
M  V30 20 1 20 21
M  V30 21 2 21 22
M  V30 22 1 21 23
M  V30 23 1 8 2
M  V30 24 1 20 11
M  V30 25 1 3 24
M  V30 26 1 3 25
M  V30 27 1 4 26
M  V30 28 1 4 27
M  V30 29 1 5 28
M  V30 30 1 5 29
M  V30 31 1 8 30
M  V30 32 1 12 31
M  V30 33 1 13 32
M  V30 34 1 19 33
M  V30 END BOND
M  V30 END CTAB
M  END
>  <Dataset>  (677) 
OralDrugs

>  <Ligand_Instance>  (677) 
nan

>  <PDB_ID>  (677) 
nan

>  <Standardized_SMILES>  (677) 
O=C1CCCC(=O)C1C(=O)c1ccc(C(F)(F)F)cc1[N+](=O)[O-]

>  <Name>  (677) 
Nitisinone

>  <Pocket>  (677) 
nan

>  <ATP_Site>  (677) 
nan

>  <Peripheral>  (677) 
nan

>  <Num_H_Atoms_ProtBoundConf>  (677) 
nan

>  <Num_Resolved_Atoms>  (677) 
nan

>  <Num_Not_Resolved_Atoms>  (677) 
nan

$$$$
CHEMBL572
     RDKit          3D

  0  0  0  0  0  0  0  0  0  0999 V3000
M  V30 BEGIN CTAB
M  V30 COUNTS 23 24 0 0 0
M  V30 BEGIN ATOM
M  V30 1 O -1.603230 -3.980563 3.673534 0
M  V30 2 C -1.196623 -3.533551 2.548894 0
M  V30 3 C 0.078704 -2.929402 2.020988 0
M  V30 4 N -0.472179 -1.871168 1.178221 0
M  V30 5 N -0.190406 -0.521134 0.867007 0
M  V30 6 C 0.968805 -0.038659 0.690354 0
M  V30 7 C 1.261846 1.355943 0.368742 0
M  V30 8 C 1.771176 2.234822 1.331641 0
M  V30 9 C 1.959859 3.496986 0.765829 0
M  V30 10 C 1.542519 3.295847 -0.534385 0
M  V30 11 N 1.531889 4.292084 -1.553853 0 CHG=1 VAL=4
M  V30 12 O 1.914735 5.467352 -1.337029 0
M  V30 13 O 1.154460 4.259065 -2.876381 0 CHG=-1 VAL=1
M  V30 14 O 1.147877 2.073835 -0.747552 0
M  V30 15 C -1.607170 -2.499388 0.544120 0
M  V30 16 O -2.167533 -2.244504 -0.564246 0
M  V30 17 N -2.063616 -3.544311 1.404235 0
M  V30 18 H 0.722735 -2.554576 2.823526 0
M  V30 19 H 0.552327 -3.665983 1.347656 0
M  V30 20 H 1.747519 -0.807980 0.809649 0
M  V30 21 H 1.994543 1.990146 2.374562 0
M  V30 22 H 2.338476 4.388299 1.247254 0
M  V30 23 H -2.872068 -4.186319 1.226344 0
M  V30 END ATOM
M  V30 BEGIN BOND
M  V30 1 2 1 2
M  V30 2 1 2 3
M  V30 3 1 3 4
M  V30 4 1 4 5
M  V30 5 2 5 6
M  V30 6 1 6 7
M  V30 7 2 7 8
M  V30 8 1 8 9
M  V30 9 2 9 10
M  V30 10 1 10 11
M  V30 11 2 11 12
M  V30 12 1 11 13
M  V30 13 1 10 14
M  V30 14 1 4 15
M  V30 15 2 15 16
M  V30 16 1 15 17
M  V30 17 1 17 2
M  V30 18 1 14 7
M  V30 19 1 3 18
M  V30 20 1 3 19
M  V30 21 1 6 20
M  V30 22 1 8 21
M  V30 23 1 9 22
M  V30 24 1 17 23
M  V30 END BOND
M  V30 END CTAB
M  END
>  <Dataset>  (678) 
OralDrugs

>  <Ligand_Instance>  (678) 
nan

>  <PDB_ID>  (678) 
nan

>  <Standardized_SMILES>  (678) 
O=C1CN(/N=C/c2ccc([N+](=O)[O-])o2)C(=O)N1

>  <Name>  (678) 
Nitrofurantoin

>  <Pocket>  (678) 
nan

>  <ATP_Site>  (678) 
nan

>  <Peripheral>  (678) 
nan

>  <Num_H_Atoms_ProtBoundConf>  (678) 
nan

>  <Num_Resolved_Atoms>  (678) 
nan

>  <Num_Not_Resolved_Atoms>  (678) 
nan

$$$$
CHEMBL3183075
     RDKit          3D

  0  0  0  0  0  0  0  0  0  0999 V3000
M  V30 BEGIN CTAB
M  V30 COUNTS 42 42 0 0 0
M  V30 BEGIN ATOM
M  V30 1 C -1.612364 -3.847269 3.011649 0
M  V30 2 N -1.579787 -3.964164 1.566320 0
M  V30 3 C -0.381712 -3.565938 0.866362 0
M  V30 4 C 0.399680 -4.519364 0.359224 0
M  V30 5 N 1.595392 -4.104468 -0.337989 0 CHG=1 VAL=4
M  V30 6 O 1.920810 -3.927033 -1.507030 0
M  V30 7 O 2.441991 -3.909926 0.731587 0 CHG=-1 VAL=1
M  V30 8 N -0.033288 -2.200785 0.715737 0
M  V30 9 C -0.798831 -1.016936 0.435475 0
M  V30 10 C -1.380461 -0.956301 -0.948644 0
M  V30 11 S -2.266620 0.578892 -1.183489 0
M  V30 12 C -1.288145 2.050310 -1.347365 0
M  V30 13 C -0.424694 2.417338 -0.221134 0
M  V30 14 C -0.923635 3.132556 1.042785 0
M  V30 15 S 0.575626 3.316066 1.979751 0
M  V30 16 C 1.632910 2.467864 0.653336 0
M  V30 17 C 3.103820 2.300301 0.883785 0
M  V30 18 N 3.301578 0.973345 1.408143 0
M  V30 19 C 2.480584 0.803403 2.575579 0
M  V30 20 C 3.045593 0.026059 0.353242 0
M  V30 21 N 0.879048 2.186543 -0.201972 0
M  V30 22 H -1.911118 -4.811437 3.478251 0
M  V30 23 H -2.331200 -3.062649 3.314623 0
M  V30 24 H -0.621729 -3.528544 3.427431 0
M  V30 25 H -2.443397 -4.337389 1.140801 0
M  V30 26 H 0.131107 -5.557966 0.473954 0
M  V30 27 H 1.007427 -2.028574 0.836332 0
M  V30 28 H -0.261889 -0.087615 0.647568 0
M  V30 29 H -1.701262 -0.962080 1.140286 0
M  V30 30 H -0.612219 -1.135764 -1.735003 0
M  V30 31 H -2.126777 -1.784331 -1.035089 0
M  V30 32 H -0.705690 1.968361 -2.310775 0
M  V30 33 H -2.017199 2.890784 -1.599368 0
M  V30 34 H -2.037806 3.340125 1.044854 0
M  V30 35 H 3.664064 2.457686 -0.061392 0
M  V30 36 H 3.470681 3.030125 1.638057 0
M  V30 37 H 2.602008 -0.226632 3.002289 0
M  V30 38 H 1.397419 0.949279 2.311382 0
M  V30 39 H 2.759541 1.543308 3.338924 0
M  V30 40 H 3.672667 0.219825 -0.544743 0
M  V30 41 H 3.244054 -1.016870 0.678504 0
M  V30 42 H 1.998717 0.107323 0.009476 0
M  V30 END ATOM
M  V30 BEGIN BOND
M  V30 1 1 1 2
M  V30 2 1 2 3
M  V30 3 2 3 4 CFG=2
M  V30 4 1 4 5
M  V30 5 2 5 6
M  V30 6 1 5 7
M  V30 7 1 3 8
M  V30 8 1 8 9
M  V30 9 1 9 10
M  V30 10 1 10 11
M  V30 11 1 11 12
M  V30 12 1 12 13
M  V30 13 2 13 14
M  V30 14 1 14 15
M  V30 15 1 15 16
M  V30 16 1 16 17
M  V30 17 1 17 18
M  V30 18 1 18 19
M  V30 19 1 18 20
M  V30 20 2 16 21
M  V30 21 1 21 13
M  V30 22 1 1 22
M  V30 23 1 1 23
M  V30 24 1 1 24
M  V30 25 1 2 25
M  V30 26 1 4 26
M  V30 27 1 8 27
M  V30 28 1 9 28
M  V30 29 1 9 29
M  V30 30 1 10 30
M  V30 31 1 10 31
M  V30 32 1 12 32
M  V30 33 1 12 33
M  V30 34 1 14 34
M  V30 35 1 17 35
M  V30 36 1 17 36
M  V30 37 1 19 37
M  V30 38 1 19 38
M  V30 39 1 19 39
M  V30 40 1 20 40
M  V30 41 1 20 41
M  V30 42 1 20 42
M  V30 END BOND
M  V30 END CTAB
M  END
>  <Dataset>  (679) 
OralDrugs

>  <Ligand_Instance>  (679) 
nan

>  <PDB_ID>  (679) 
nan

>  <Standardized_SMILES>  (679) 
CNC(=C[N+](=O)[O-])NCCSCc1csc(CN(C)C)n1

>  <Name>  (679) 
Nizatidine

>  <Pocket>  (679) 
nan

>  <ATP_Site>  (679) 
nan

>  <Peripheral>  (679) 
nan

>  <Num_H_Atoms_ProtBoundConf>  (679) 
nan

>  <Num_Resolved_Atoms>  (679) 
nan

>  <Num_Not_Resolved_Atoms>  (679) 
nan

$$$$
CHEMBL1162
     RDKit          3D

  0  0  0  0  0  0  0  0  0  0999 V3000
M  V30 BEGIN CTAB
M  V30 COUNTS 48 51 0 0 0
M  V30 BEGIN ATOM
M  V30 1 C 1.424355 -4.508106 -1.195007 0
M  V30 2 C 1.307281 -4.122401 -0.057344 0
M  V30 3 C 1.179501 -3.656504 1.320378 0 CFG=2
M  V30 4 O 2.240410 -3.995768 2.125870 0
M  V30 5 C -0.135746 -4.121239 1.929388 0
M  V30 6 C -1.134907 -3.035177 1.664711 0
M  V30 7 C -0.428475 -2.050024 0.812726 0 CFG=1
M  V30 8 C -0.809488 -0.627054 1.049966 0 CFG=2
M  V30 9 C -2.241551 -0.361237 0.649039 0
M  V30 10 C -2.588835 1.088093 0.901789 0
M  V30 11 C -1.599831 2.016583 0.284912 0
M  V30 12 C -1.934615 2.972489 -0.576432 0
M  V30 13 C -0.851827 3.804682 -1.096492 0
M  V30 14 O -1.156786 4.846523 -1.704099 0
M  V30 15 C 0.536862 3.384166 -0.884378 0
M  V30 16 C 0.774048 2.722142 0.447619 0
M  V30 17 C -0.238966 1.689770 0.787825 0 CFG=2
M  V30 18 C 0.064425 0.302746 0.270834 0 CFG=1
M  V30 19 C 1.532627 0.004217 0.345662 0
M  V30 20 C 1.850190 -1.459954 0.300964 0
M  V30 21 C 1.007861 -2.174671 1.311240 0 CFG=2
M  V30 22 C 1.180863 -1.626750 2.707877 0
M  V30 23 H 1.530445 -4.836762 -2.200239 0
M  V30 24 H 2.557882 -4.920288 1.993072 0
M  V30 25 H -0.041441 -4.291569 3.012814 0
M  V30 26 H -0.378020 -5.077112 1.431418 0
M  V30 27 H -1.961456 -3.491547 1.044359 0
M  V30 28 H -1.539090 -2.587382 2.588353 0
M  V30 29 H -0.411084 -2.298306 -0.254360 0
M  V30 30 H -0.753332 -0.393343 2.135601 0
M  V30 31 H -2.887215 -0.955354 1.336871 0
M  V30 32 H -2.498945 -0.688586 -0.367198 0
M  V30 33 H -3.615375 1.251571 0.512601 0
M  V30 34 H -2.617082 1.288073 1.986104 0
M  V30 35 H -2.965306 3.065174 -0.826872 0
M  V30 36 H 0.918006 2.688990 -1.686740 0
M  V30 37 H 1.172859 4.303919 -0.896946 0
M  V30 38 H 0.707874 3.533159 1.229588 0
M  V30 39 H 1.793079 2.337078 0.475667 0
M  V30 40 H -0.238536 1.603823 1.914057 0
M  V30 41 H -0.262137 0.273909 -0.785067 0
M  V30 42 H 2.060801 0.447944 1.201668 0
M  V30 43 H 1.994163 0.466370 -0.573368 0
M  V30 44 H 2.926480 -1.593512 0.399283 0
M  V30 45 H 1.525935 -1.871968 -0.699576 0
M  V30 46 H 1.186812 -0.536146 2.760385 0
M  V30 47 H 2.195174 -1.979182 3.034855 0
M  V30 48 H 0.366135 -1.998693 3.331345 0
M  V30 END ATOM
M  V30 BEGIN BOND
M  V30 1 3 1 2
M  V30 2 1 3 2 CFG=3
M  V30 3 1 3 4
M  V30 4 1 3 5
M  V30 5 1 5 6
M  V30 6 1 6 7
M  V30 7 1 7 8
M  V30 8 1 8 9
M  V30 9 1 9 10
M  V30 10 1 10 11
M  V30 11 2 11 12
M  V30 12 1 12 13
M  V30 13 2 13 14
M  V30 14 1 13 15
M  V30 15 1 15 16
M  V30 16 1 16 17
M  V30 17 1 17 18
M  V30 18 1 18 19
M  V30 19 1 19 20
M  V30 20 1 20 21
M  V30 21 1 21 22 CFG=1
M  V30 22 1 21 3
M  V30 23 1 21 7
M  V30 24 1 18 8
M  V30 25 1 17 11
M  V30 26 1 1 23
M  V30 27 1 4 24
M  V30 28 1 5 25
M  V30 29 1 5 26
M  V30 30 1 6 27
M  V30 31 1 6 28
M  V30 32 1 7 29 CFG=3
M  V30 33 1 8 30 CFG=1
M  V30 34 1 9 31
M  V30 35 1 9 32
M  V30 36 1 10 33
M  V30 37 1 10 34
M  V30 38 1 12 35
M  V30 39 1 15 36
M  V30 40 1 15 37
M  V30 41 1 16 38
M  V30 42 1 16 39
M  V30 43 1 17 40 CFG=1
M  V30 44 1 18 41 CFG=3
M  V30 45 1 19 42
M  V30 46 1 19 43
M  V30 47 1 20 44
M  V30 48 1 20 45
M  V30 49 1 22 46
M  V30 50 1 22 47
M  V30 51 1 22 48
M  V30 END BOND
M  V30 END CTAB
M  END
>  <Dataset>  (680) 
OralDrugs

>  <Ligand_Instance>  (680) 
nan

>  <PDB_ID>  (680) 
nan

>  <Standardized_SMILES>  (680) 
C#C[C@]1(O)CC[C@H]2[C@@H]3CCC4=CC(=O)CC[C@@H]4[C@H]3CC[C@@]21C

>  <Name>  (680) 
Norethindrone

>  <Pocket>  (680) 
nan

>  <ATP_Site>  (680) 
nan

>  <Peripheral>  (680) 
nan

>  <Num_H_Atoms_ProtBoundConf>  (680) 
nan

>  <Num_Resolved_Atoms>  (680) 
nan

>  <Num_Not_Resolved_Atoms>  (680) 
nan

$$$$
CHEMBL1387
     RDKit          3D

  0  0  0  0  0  0  0  0  0  0999 V3000
M  V30 BEGIN CTAB
M  V30 COUNTS 48 51 0 0 0
M  V30 BEGIN ATOM
M  V30 1 C -0.614975 -1.611203 -3.195442 0
M  V30 2 C -0.589561 -2.398388 -2.266254 0
M  V30 3 C -0.562725 -3.335483 -1.120772 0 CFG=2
M  V30 4 O 0.054675 -4.499092 -1.476334 0
M  V30 5 C -1.998268 -3.528150 -0.617161 0
M  V30 6 C -2.204505 -2.463203 0.466124 0
M  V30 7 C -1.039029 -1.577112 0.228523 0 CFG=1
M  V30 8 C -0.718239 -0.573571 1.284656 0 CFG=2
M  V30 9 C -1.740782 0.519992 1.241745 0
M  V30 10 C -1.202580 1.825641 0.666854 0
M  V30 11 C 0.028688 2.186871 1.425640 0
M  V30 12 C 0.966893 1.248260 1.533348 0
M  V30 13 C 2.250555 1.458034 2.259748 0
M  V30 14 C 2.249164 2.729608 3.057841 0
M  V30 15 C 1.647343 3.831990 2.276898 0
M  V30 16 O 2.250998 4.816440 1.899837 0
M  V30 17 C 0.196014 3.537249 2.033102 0
M  V30 18 C 0.631618 -0.014333 0.875563 0 CFG=1
M  V30 19 C 1.702440 -1.060271 0.924523 0
M  V30 20 C 1.394677 -2.031629 -0.225111 0
M  V30 21 C 0.054286 -2.613781 0.054372 0 CFG=2
M  V30 22 C 0.101890 -3.591490 1.194114 0
M  V30 23 H -0.633002 -0.913150 -3.991550 0
M  V30 24 H -0.613761 -5.236873 -1.345731 0
M  V30 25 H -2.675587 -3.276347 -1.467565 0
M  V30 26 H -2.185651 -4.540752 -0.254574 0
M  V30 27 H -2.179260 -2.907928 1.476385 0
M  V30 28 H -3.156586 -1.908974 0.316683 0
M  V30 29 H -1.152476 -1.065720 -0.754534 0
M  V30 30 H -0.668626 -1.079540 2.272970 0
M  V30 31 H -2.118827 0.791427 2.260915 0
M  V30 32 H -2.652736 0.236183 0.644033 0
M  V30 33 H -0.983534 1.723330 -0.417977 0
M  V30 34 H -1.969018 2.590893 0.802968 0
M  V30 35 H 3.097294 1.526737 1.524346 0
M  V30 36 H 2.429150 0.631678 2.979765 0
M  V30 37 H 3.308258 2.964360 3.291026 0
M  V30 38 H 1.645328 2.583792 3.989926 0
M  V30 39 H -0.356720 3.559334 2.978331 0
M  V30 40 H -0.212532 4.316709 1.357210 0
M  V30 41 H 0.514029 0.225131 -0.222951 0
M  V30 42 H 2.664010 -0.591967 0.662666 0
M  V30 43 H 1.756865 -1.632135 1.865373 0
M  V30 44 H 1.449738 -1.532699 -1.191795 0
M  V30 45 H 2.123029 -2.842667 -0.224216 0
M  V30 46 H -0.663234 -4.397813 1.096629 0
M  V30 47 H 0.019736 -3.133955 2.187959 0
M  V30 48 H 1.099558 -4.112648 1.136622 0
M  V30 END ATOM
M  V30 BEGIN BOND
M  V30 1 3 1 2
M  V30 2 1 3 2 CFG=3
M  V30 3 1 3 4
M  V30 4 1 3 5
M  V30 5 1 5 6
M  V30 6 1 6 7
M  V30 7 1 7 8
M  V30 8 1 8 9
M  V30 9 1 9 10
M  V30 10 1 10 11
M  V30 11 2 11 12
M  V30 12 1 12 13
M  V30 13 1 13 14
M  V30 14 1 14 15
M  V30 15 2 15 16
M  V30 16 1 15 17
M  V30 17 1 12 18
M  V30 18 1 18 19
M  V30 19 1 19 20
M  V30 20 1 20 21
M  V30 21 1 21 22 CFG=1
M  V30 22 1 21 3
M  V30 23 1 21 7
M  V30 24 1 18 8
M  V30 25 1 17 11
M  V30 26 1 1 23
M  V30 27 1 4 24
M  V30 28 1 5 25
M  V30 29 1 5 26
M  V30 30 1 6 27
M  V30 31 1 6 28
M  V30 32 1 7 29 CFG=3
M  V30 33 1 8 30 CFG=1
M  V30 34 1 9 31
M  V30 35 1 9 32
M  V30 36 1 10 33
M  V30 37 1 10 34
M  V30 38 1 13 35
M  V30 39 1 13 36
M  V30 40 1 14 37
M  V30 41 1 14 38
M  V30 42 1 17 39
M  V30 43 1 17 40
M  V30 44 1 18 41 CFG=3
M  V30 45 1 19 42
M  V30 46 1 19 43
M  V30 47 1 20 44
M  V30 48 1 20 45
M  V30 49 1 22 46
M  V30 50 1 22 47
M  V30 51 1 22 48
M  V30 END BOND
M  V30 END CTAB
M  END
>  <Dataset>  (681) 
OralDrugs

>  <Ligand_Instance>  (681) 
nan

>  <PDB_ID>  (681) 
nan

>  <Standardized_SMILES>  (681) 
C#C[C@]1(O)CC[C@H]2[C@@H]3CCC4=C(CCC(=O)C4)[C@H]3CC[C@@]21C

>  <Name>  (681) 
Norethynodrel

>  <Pocket>  (681) 
nan

>  <ATP_Site>  (681) 
nan

>  <Peripheral>  (681) 
nan

>  <Num_H_Atoms_ProtBoundConf>  (681) 
nan

>  <Num_Resolved_Atoms>  (681) 
nan

>  <Num_Not_Resolved_Atoms>  (681) 
nan

$$$$
CHEMBL9
     RDKit          3D

  0  0  0  0  0  0  0  0  0  0999 V3000
M  V30 BEGIN CTAB
M  V30 COUNTS 41 43 0 0 0
M  V30 BEGIN ATOM
M  V30 1 C 0.592111 -3.914443 0.826778 0
M  V30 2 C 1.199820 -2.998756 1.858071 0
M  V30 3 N 2.009564 -1.958840 1.252837 0
M  V30 4 C 3.332320 -2.156574 1.029743 0
M  V30 5 C 4.224723 -1.269049 0.467706 0
M  V30 6 C 5.624872 -1.648903 0.300309 0
M  V30 7 O 6.113859 -2.760211 0.636337 0
M  V30 8 O 6.490108 -0.722839 -0.271047 0
M  V30 9 C 3.713041 -0.044672 0.091295 0
M  V30 10 O 4.505856 0.778988 -0.422189 0
M  V30 11 C 2.371844 0.204976 0.297664 0
M  V30 12 C 1.876963 1.435000 -0.085085 0
M  V30 13 C 0.534829 1.753391 0.093551 0
M  V30 14 F -0.000872 2.950292 -0.266486 0
M  V30 15 C -0.262546 0.763715 0.674982 0
M  V30 16 N -1.652441 1.062373 0.872497 0
M  V30 17 C -2.606134 1.400537 -0.170165 0
M  V30 18 C -3.551368 0.237046 -0.249482 0
M  V30 19 N -4.196734 0.031908 0.986726 0
M  V30 20 C -3.723023 0.680358 2.139847 0
M  V30 21 C -2.284971 1.061276 2.173905 0
M  V30 22 C 0.227293 -0.472843 1.061523 0
M  V30 23 C 1.557644 -0.750832 0.869319 0
M  V30 24 H -0.523501 -3.739011 0.819683 0
M  V30 25 H 0.686435 -4.982801 1.109774 0
M  V30 26 H 1.026779 -3.795039 -0.178110 0
M  V30 27 H 1.916819 -3.645664 2.444190 0
M  V30 28 H 0.489638 -2.626430 2.601565 0
M  V30 29 H 3.732843 -3.122546 1.327434 0
M  V30 30 H 7.501099 -0.733288 -0.078482 0
M  V30 31 H 2.524612 2.176446 -0.532198 0
M  V30 32 H -2.066210 1.574472 -1.125657 0
M  V30 33 H -3.200590 2.291900 0.131647 0
M  V30 34 H -4.348993 0.439598 -1.022975 0
M  V30 35 H -2.974265 -0.684007 -0.542717 0
M  V30 36 H -4.657343 -0.883227 1.113920 0
M  V30 37 H -3.895741 -0.010781 3.009985 0
M  V30 38 H -4.396351 1.542704 2.359023 0
M  V30 39 H -1.696900 0.493012 2.924961 0
M  V30 40 H -2.225591 2.132231 2.523907 0
M  V30 41 H -0.436663 -1.185518 1.500495 0
M  V30 END ATOM
M  V30 BEGIN BOND
M  V30 1 1 1 2
M  V30 2 1 2 3
M  V30 3 1 3 4
M  V30 4 2 4 5
M  V30 5 1 5 6
M  V30 6 2 6 7
M  V30 7 1 6 8
M  V30 8 1 5 9
M  V30 9 2 9 10
M  V30 10 1 9 11
M  V30 11 2 11 12
M  V30 12 1 12 13
M  V30 13 1 13 14
M  V30 14 2 13 15
M  V30 15 1 15 16
M  V30 16 1 16 17
M  V30 17 1 17 18
M  V30 18 1 18 19
M  V30 19 1 19 20
M  V30 20 1 20 21
M  V30 21 1 15 22
M  V30 22 2 22 23
M  V30 23 1 23 3
M  V30 24 1 23 11
M  V30 25 1 21 16
M  V30 26 1 1 24
M  V30 27 1 1 25
M  V30 28 1 1 26
M  V30 29 1 2 27
M  V30 30 1 2 28
M  V30 31 1 4 29
M  V30 32 1 8 30
M  V30 33 1 12 31
M  V30 34 1 17 32
M  V30 35 1 17 33
M  V30 36 1 18 34
M  V30 37 1 18 35
M  V30 38 1 19 36
M  V30 39 1 20 37
M  V30 40 1 20 38
M  V30 41 1 21 39
M  V30 42 1 21 40
M  V30 43 1 22 41
M  V30 END BOND
M  V30 END CTAB
M  END
>  <Dataset>  (682) 
OralDrugs

>  <Ligand_Instance>  (682) 
nan

>  <PDB_ID>  (682) 
nan

>  <Standardized_SMILES>  (682) 
CCn1cc(C(=O)O)c(=O)c2cc(F)c(N3CCNCC3)cc21

>  <Name>  (682) 
Norfloxacin

>  <Pocket>  (682) 
nan

>  <ATP_Site>  (682) 
nan

>  <Peripheral>  (682) 
nan

>  <Num_H_Atoms_ProtBoundConf>  (682) 
nan

>  <Num_Resolved_Atoms>  (682) 
nan

>  <Num_Not_Resolved_Atoms>  (682) 
nan

$$$$
CHEMBL2107797
     RDKit          3D

  0  0  0  0  0  0  0  0  0  0999 V3000
M  V30 BEGIN CTAB
M  V30 COUNTS 51 54 0 0 0
M  V30 BEGIN ATOM
M  V30 1 C -0.382518 3.889534 -1.160719 0
M  V30 2 C 0.290876 3.233711 -0.440155 0
M  V30 3 C 1.137239 2.429462 0.433117 0
M  V30 4 O 1.484782 3.110574 1.595923 0
M  V30 5 C 2.459558 2.083824 -0.254422 0
M  V30 6 C 2.580741 0.564972 -0.092271 0
M  V30 7 C 1.163938 0.181264 -0.212246 0 CFG=1
M  V30 8 C 0.786670 -1.217841 0.103230 0 CFG=2
M  V30 9 C 1.418440 -2.187775 -0.877671 0
M  V30 10 C 0.975497 -3.595656 -0.537777 0
M  V30 11 C -0.109585 -3.666719 0.442048 0
M  V30 12 C -0.301473 -4.839173 1.033889 0
M  V30 13 C -1.389781 -4.891289 2.009716 0
M  V30 14 O -1.363911 -5.623314 3.036558 0
M  V30 15 C -2.642382 -4.069291 1.869850 0
M  V30 16 C -2.477836 -3.008711 0.775266 0
M  V30 17 C -1.048301 -2.570601 0.871947 0 CFG=2
M  V30 18 C -0.700732 -1.397115 -0.025515 0 CFG=1
M  V30 19 C -1.564131 -0.263490 0.348129 0
M  V30 20 C -0.952543 1.108561 0.298671 0
M  V30 21 C 0.474216 1.111469 0.752718 0 CFG=2
M  V30 22 C 0.692277 0.777749 2.182659 0
M  V30 23 C 0.153613 1.759642 3.163704 0
M  V30 24 H -0.980270 4.479753 -1.821536 0
M  V30 25 H 1.183449 4.055889 1.585453 0
M  V30 26 H 2.304474 2.254681 -1.327352 0
M  V30 27 H 3.311710 2.607316 0.181043 0
M  V30 28 H 3.135958 0.157431 -0.981060 0
M  V30 29 H 3.060862 0.300676 0.850071 0
M  V30 30 H 0.793043 0.422942 -1.227825 0
M  V30 31 H 1.164627 -1.553366 1.097032 0
M  V30 32 H 2.523842 -2.189442 -0.799968 0
M  V30 33 H 1.185805 -1.905060 -1.931437 0
M  V30 34 H 0.636367 -4.051030 -1.512044 0
M  V30 35 H 1.810226 -4.247680 -0.208041 0
M  V30 36 H 0.245473 -5.757348 0.884251 0
M  V30 37 H -3.542822 -4.668350 1.744477 0
M  V30 38 H -2.757126 -3.484541 2.828969 0
M  V30 39 H -3.098049 -2.145706 1.041058 0
M  V30 40 H -2.755744 -3.409967 -0.217633 0
M  V30 41 H -0.855786 -2.265785 1.908113 0
M  V30 42 H -0.956216 -1.762953 -1.064135 0
M  V30 43 H -2.018800 -0.386573 1.375207 0
M  V30 44 H -2.451242 -0.242730 -0.325992 0
M  V30 45 H -0.936676 1.403657 -0.775788 0
M  V30 46 H -1.617979 1.808669 0.799276 0
M  V30 47 H 0.286294 -0.228092 2.457865 0
M  V30 48 H 1.778988 0.663821 2.384427 0
M  V30 49 H -0.474893 2.567822 2.736714 0
M  V30 50 H -0.388735 1.240055 4.010052 0
M  V30 51 H 0.976265 2.289423 3.716812 0
M  V30 END ATOM
M  V30 BEGIN BOND
M  V30 1 3 1 2
M  V30 2 1 2 3
M  V30 3 1 3 4
M  V30 4 1 3 5
M  V30 5 1 5 6
M  V30 6 1 6 7
M  V30 7 1 7 8
M  V30 8 1 8 9
M  V30 9 1 9 10
M  V30 10 1 10 11
M  V30 11 2 11 12
M  V30 12 1 12 13
M  V30 13 2 13 14
M  V30 14 1 13 15
M  V30 15 1 15 16
M  V30 16 1 16 17
M  V30 17 1 17 18
M  V30 18 1 18 19
M  V30 19 1 19 20
M  V30 20 1 20 21
M  V30 21 1 21 22 CFG=1
M  V30 22 1 22 23
M  V30 23 1 21 3
M  V30 24 1 21 7
M  V30 25 1 18 8
M  V30 26 1 17 11
M  V30 27 1 1 24
M  V30 28 1 4 25
M  V30 29 1 5 26
M  V30 30 1 5 27
M  V30 31 1 6 28
M  V30 32 1 6 29
M  V30 33 1 7 30 CFG=3
M  V30 34 1 8 31 CFG=1
M  V30 35 1 9 32
M  V30 36 1 9 33
M  V30 37 1 10 34
M  V30 38 1 10 35
M  V30 39 1 12 36
M  V30 40 1 15 37
M  V30 41 1 15 38
M  V30 42 1 16 39
M  V30 43 1 16 40
M  V30 44 1 17 41 CFG=1
M  V30 45 1 18 42 CFG=3
M  V30 46 1 19 43
M  V30 47 1 19 44
M  V30 48 1 20 45
M  V30 49 1 20 46
M  V30 50 1 22 47
M  V30 51 1 22 48
M  V30 52 1 23 49
M  V30 53 1 23 50
M  V30 54 1 23 51
M  V30 END BOND
M  V30 END CTAB
M  END
>  <Dataset>  (683) 
OralDrugs

>  <Ligand_Instance>  (683) 
nan

>  <PDB_ID>  (683) 
nan

>  <Standardized_SMILES>  (683) 
C#CC1(O)CC[C@H]2[C@@H]3CCC4=CC(=O)CC[C@@H]4[C@H]3CC[C@@]21CC

>  <Name>  (683) 
Norgestrel

>  <Pocket>  (683) 
nan

>  <ATP_Site>  (683) 
nan

>  <Peripheral>  (683) 
nan

>  <Num_H_Atoms_ProtBoundConf>  (683) 
nan

>  <Num_Resolved_Atoms>  (683) 
nan

>  <Num_Not_Resolved_Atoms>  (683) 
nan

$$$$
CHEMBL445
     RDKit          3D

  0  0  0  0  0  0  0  0  0  0999 V3000
M  V30 BEGIN CTAB
M  V30 COUNTS 41 43 0 0 0
M  V30 BEGIN ATOM
M  V30 1 C -2.426050 -3.390697 3.652783 0
M  V30 2 N -2.131278 -4.130441 2.441135 0
M  V30 3 C -1.702287 -3.216298 1.418428 0
M  V30 4 C -0.336745 -2.684701 1.885785 0
M  V30 5 C 0.265951 -1.725288 0.961501 0
M  V30 6 C 0.814507 -0.565706 0.552180 0
M  V30 7 C 1.212131 -0.469546 -0.883680 0
M  V30 8 C 1.791189 -1.673618 -1.277091 0
M  V30 9 C 2.178686 -1.676872 -2.595726 0
M  V30 10 C 1.992206 -0.567035 -3.415783 0
M  V30 11 C 1.402916 0.593539 -2.929250 0
M  V30 12 C 0.965941 0.714860 -1.600446 0
M  V30 13 C 0.347621 1.997991 -1.282766 0
M  V30 14 C 0.714967 2.680179 -0.029530 0
M  V30 15 C 0.895225 1.858366 1.179840 0
M  V30 16 C 1.047435 2.756321 2.242422 0
M  V30 17 C 1.265139 2.298640 3.538500 0
M  V30 18 C 1.337177 0.926660 3.805670 0
M  V30 19 C 1.194453 0.006144 2.796851 0
M  V30 20 C 0.980651 0.531924 1.546757 0
M  V30 21 H -1.517036 -3.446490 4.296313 0
M  V30 22 H -3.303101 -3.839158 4.173260 0
M  V30 23 H -2.668047 -2.349401 3.353957 0
M  V30 24 H -1.393738 -4.859387 2.630858 0
M  V30 25 H -1.553747 -3.702574 0.441261 0
M  V30 26 H -2.422857 -2.402964 1.298933 0
M  V30 27 H 0.276914 -3.559496 2.152519 0
M  V30 28 H -0.579706 -2.229151 2.902358 0
M  V30 29 H 0.172104 -2.442347 0.160736 0
M  V30 30 H 1.896473 -2.470750 -0.562384 0
M  V30 31 H 2.633903 -2.567466 -2.979642 0
M  V30 32 H 2.316807 -0.610189 -4.465375 0
M  V30 33 H 1.264993 1.447987 -3.579046 0
M  V30 34 H -0.772881 1.950957 -1.403624 0
M  V30 35 H 0.651444 2.695712 -2.125677 0
M  V30 36 H -0.072337 3.439587 0.192158 0
M  V30 37 H 1.642704 3.296043 -0.227353 0
M  V30 38 H 1.017982 3.851125 2.199428 0
M  V30 39 H 1.388726 2.953183 4.394233 0
M  V30 40 H 1.507254 0.536257 4.813314 0
M  V30 41 H 1.257146 -1.051953 2.881277 0
M  V30 END ATOM
M  V30 BEGIN BOND
M  V30 1 1 1 2
M  V30 2 1 2 3
M  V30 3 1 3 4
M  V30 4 1 4 5
M  V30 5 2 5 6 CFG=2
M  V30 6 1 6 7
M  V30 7 2 7 8
M  V30 8 1 8 9
M  V30 9 2 9 10
M  V30 10 1 10 11
M  V30 11 2 11 12
M  V30 12 1 12 13
M  V30 13 1 13 14
M  V30 14 1 14 15
M  V30 15 2 15 16
M  V30 16 1 16 17
M  V30 17 2 17 18
M  V30 18 1 18 19
M  V30 19 2 19 20
M  V30 20 1 20 6
M  V30 21 1 12 7
M  V30 22 1 20 15
M  V30 23 1 1 21
M  V30 24 1 1 22
M  V30 25 1 1 23
M  V30 26 1 2 24
M  V30 27 1 3 25
M  V30 28 1 3 26
M  V30 29 1 4 27
M  V30 30 1 4 28
M  V30 31 1 5 29
M  V30 32 1 8 30
M  V30 33 1 9 31
M  V30 34 1 10 32
M  V30 35 1 11 33
M  V30 36 1 13 34
M  V30 37 1 13 35
M  V30 38 1 14 36
M  V30 39 1 14 37
M  V30 40 1 16 38
M  V30 41 1 17 39
M  V30 42 1 18 40
M  V30 43 1 19 41
M  V30 END BOND
M  V30 END CTAB
M  END
>  <Dataset>  (684) 
OralDrugs

>  <Ligand_Instance>  (684) 
nan

>  <PDB_ID>  (684) 
nan

>  <Standardized_SMILES>  (684) 
CNCCC=C1c2ccccc2CCc2ccccc21

>  <Name>  (684) 
Nortriptyline

>  <Pocket>  (684) 
nan

>  <ATP_Site>  (684) 
nan

>  <Peripheral>  (684) 
nan

>  <Num_H_Atoms_ProtBoundConf>  (684) 
nan

>  <Num_Resolved_Atoms>  (684) 
nan

>  <Num_Not_Resolved_Atoms>  (684) 
nan

$$$$
CHEMBL450895
     RDKit          3D

  0  0  0  0  0  0  0  0  0  0999 V3000
M  V30 BEGIN CTAB
M  V30 COUNTS 140 142 0 0 0
M  V30 BEGIN ATOM
M  V30 1 C -4.913939 -1.004461 0.858001 0
M  V30 2 C -5.353269 -1.130851 -0.638967 0 CFG=2
M  V30 3 C -4.140497 -1.550927 -1.364073 0 CFG=2
M  V30 4 O -3.190271 -0.531474 -1.237452 0
M  V30 5 C -4.183290 -1.986445 -2.766704 0 CFG=1
M  V30 6 C -5.146500 -3.119588 -3.074594 0
M  V30 7 C -4.038340 -0.999108 -3.830072 0
M  V30 8 C -4.151050 0.245999 -4.231828 0
M  V30 9 C -3.846861 0.813089 -5.530323 0
M  V30 10 C -3.787601 1.819062 -6.343866 0
M  V30 11 C -3.340681 1.916700 -7.759902 0
M  V30 12 C -2.776012 0.615337 -8.299076 0
M  V30 13 C -1.504137 0.373027 -7.503899 0
M  V30 14 C -0.277001 0.250624 -7.992517 0
M  V30 15 C 1.007615 0.017178 -7.297497 0
M  V30 16 C 0.887015 -0.076092 -6.008158 0
M  V30 17 C 1.981123 -0.301249 -5.087867 0
M  V30 18 C 2.187567 -0.436629 -3.812479 0
M  V30 19 C 3.147274 -0.654723 -2.758774 0
M  V30 20 C 2.657114 -0.691021 -1.541982 0
M  V30 21 C 3.379660 -0.900843 -0.198836 0 CFG=2
M  V30 22 O 4.289884 -1.934019 -0.514703 0
M  V30 23 C 5.596296 -1.539141 -0.625993 0 CFG=2
M  V30 24 O 5.885748 -1.663956 -2.026326 0
M  V30 25 C 7.141277 -1.201333 -2.319748 0 CFG=2
M  V30 26 C 7.284537 -1.061920 -3.805695 0
M  V30 27 C 8.119237 -2.260289 -1.823104 0 CFG=1
M  V30 28 O 9.407706 -1.854310 -2.117960 0
M  V30 29 C 7.962528 -2.326398 -0.341332 0 CFG=2
M  V30 30 N 8.621164 -3.557330 0.111707 0
M  V30 31 C 6.513211 -2.454704 0.120457 0 CFG=2
M  V30 32 O 6.145648 -3.769082 -0.233032 0
M  V30 33 C 2.347886 -1.412867 0.729255 0
M  V30 34 C 2.581451 -1.522121 2.171018 0 CFG=2
M  V30 35 O 2.084232 -0.348112 2.766812 0
M  V30 36 C 1.926122 -0.618777 4.121563 0 CFG=2
M  V30 37 O 1.521640 -1.903404 4.403937 0
M  V30 38 C 1.073504 0.426423 4.802672 0
M  V30 39 C -0.358006 0.046128 4.980789 0 CFG=1
M  V30 40 O -0.611992 -1.047251 5.756029 0
M  V30 41 C -1.106042 1.244778 5.563784 0 CFG=2
M  V30 42 O -0.727242 1.526378 6.862743 0
M  V30 43 C -2.598038 1.044290 5.503947 0
M  V30 44 C -3.428718 2.152263 6.003184 0
M  V30 45 C -3.264383 3.528402 5.542898 0 CFG=1
M  V30 46 O -1.950736 4.020304 5.779286 0
M  V30 47 C -3.716496 3.976822 4.206541 0
M  V30 48 C -2.992379 3.429741 3.047459 0 CFG=1
M  V30 49 O -3.057835 2.126200 2.754425 0
M  V30 50 C -3.111852 4.280585 1.769723 0
M  V30 51 C -2.421024 3.532700 0.691459 0 CFG=1
M  V30 52 O -1.214696 2.986745 1.095020 0
M  V30 53 C -3.175536 2.886807 -0.382061 0
M  V30 54 C -4.384967 2.094564 -0.050629 0
M  V30 55 O -5.236234 2.000735 0.861169 0
M  V30 56 O -4.688231 1.173083 -1.020772 0
M  V30 57 C -5.757894 0.312391 -0.997763 0 CFG=1
M  V30 58 C -6.720412 0.366302 -2.130936 0
M  V30 59 C 3.350774 -0.506900 4.679994 0
M  V30 60 C 4.151916 -1.639226 4.128501 0 CFG=2
M  V30 61 O 5.514143 -1.320746 4.322216 0
M  V30 62 C 3.912947 -1.906708 2.669928 0 CFG=1
M  V30 63 C 4.141711 -3.354916 2.444583 0
M  V30 64 O 4.362639 -4.149103 3.413199 0
M  V30 65 O 4.337682 -4.685539 2.077337 0
M  V30 66 H -4.652848 -2.030362 1.196364 0
M  V30 67 H -3.982731 -0.418530 0.908616 0
M  V30 68 H -5.738302 -0.626604 1.474595 0
M  V30 69 H -6.249918 -1.739109 -0.737784 0
M  V30 70 H -3.683168 -2.387554 -0.712836 0
M  V30 71 H -2.547630 -0.658689 -0.513586 0
M  V30 72 H -3.157997 -2.588704 -2.848295 0
M  V30 73 H -4.776492 -3.592250 -4.029171 0
M  V30 74 H -4.992630 -3.866183 -2.299808 0
M  V30 75 H -6.166796 -2.814830 -3.280923 0
M  V30 76 H -3.674195 -1.525632 -4.741467 0
M  V30 77 H -4.446891 1.227057 -3.903257 0
M  V30 78 H -3.550487 -0.026874 -6.139607 0
M  V30 79 H -4.094118 2.850645 -6.070241 0
M  V30 80 H -4.161736 2.298343 -8.413539 0
M  V30 81 H -2.511810 2.647471 -7.842515 0
M  V30 82 H -2.437979 0.796580 -9.316021 0
M  V30 83 H -3.454192 -0.222749 -8.161362 0
M  V30 84 H -1.369406 0.269213 -6.436508 0
M  V30 85 H -0.128235 0.326987 -9.083533 0
M  V30 86 H 1.919989 -0.059908 -7.848441 0
M  V30 87 H 0.142500 -0.040349 -5.251971 0
M  V30 88 H 2.919235 -0.380970 -5.661208 0
M  V30 89 H 1.136901 -0.322628 -3.484390 0
M  V30 90 H 3.904250 -0.692484 -3.509564 0
M  V30 91 H 1.565059 -0.546472 -1.425920 0
M  V30 92 H 3.827979 0.061081 -0.017633 0
M  V30 93 H 5.808550 -0.490152 -0.360950 0
M  V30 94 H 7.361550 -0.269236 -1.760273 0
M  V30 95 H 6.328227 -0.718844 -4.283167 0
M  V30 96 H 7.540101 -2.026942 -4.284198 0
M  V30 97 H 8.096654 -0.321042 -3.997943 0
M  V30 98 H 7.942476 -3.237069 -2.290549 0
M  V30 99 H 9.493091 -1.448413 -3.027475 0
M  V30 100 H 8.466604 -1.486655 0.176167 0
M  V30 101 H 8.270720 -3.899686 1.009924 0
M  V30 102 H 8.360521 -4.290928 -0.612334 0
M  V30 103 H 6.500782 -2.296693 1.191817 0
M  V30 104 H 5.269562 -3.795079 -0.675188 0
M  V30 105 H 1.386475 -0.802003 0.600585 0
M  V30 106 H 1.969371 -2.438316 0.384382 0
M  V30 107 H 1.856810 -2.306023 2.567694 0
M  V30 108 H 1.495835 -2.127623 5.344430 0
M  V30 109 H 1.088010 1.332066 4.149311 0
M  V30 110 H 1.579359 0.717992 5.731304 0
M  V30 111 H -0.791968 -0.166625 3.972662 0
M  V30 112 H -1.220142 -1.702890 5.376133 0
M  V30 113 H -0.867819 2.160245 4.960285 0
M  V30 114 H -1.183700 0.849833 7.448279 0
M  V30 115 H -2.962672 0.516901 4.633725 0
M  V30 116 H -2.751919 0.196662 6.322332 0
M  V30 117 H -3.424653 2.098524 7.145552 0
M  V30 118 H -4.514453 1.860517 5.783294 0
M  V30 119 H -3.849084 4.166347 6.331053 0
M  V30 120 H -1.938420 4.999392 5.695522 0
M  V30 121 H -4.845675 3.778191 4.113800 0
M  V30 122 H -3.688980 5.110533 4.164117 0
M  V30 123 H -1.858760 3.601188 3.342807 0
M  V30 124 H -2.230947 1.610430 2.649675 0
M  V30 125 H -2.628993 5.240586 2.027287 0
M  V30 126 H -4.165861 4.511578 1.559194 0
M  V30 127 H -1.943394 4.486239 0.079628 0
M  V30 128 H -0.544587 2.946146 0.364799 0
M  V30 129 H -3.455680 3.638294 -1.199798 0
M  V30 130 H -2.439048 2.225981 -0.963652 0
M  V30 131 H -6.373472 0.607012 -0.066740 0
M  V30 132 H -7.792453 0.427772 -1.796267 0
M  V30 133 H -6.578957 1.262214 -2.785789 0
M  V30 134 H -6.666101 -0.577308 -2.700243 0
M  V30 135 H 3.294373 -0.567419 5.788329 0
M  V30 136 H 3.735520 0.487177 4.369735 0
M  V30 137 H 3.963438 -2.527133 4.764857 0
M  V30 138 H 5.598414 -0.356695 4.071949 0
M  V30 139 H 4.674854 -1.355775 2.095685 0
M  V30 140 H 4.062945 -4.933832 1.113122 0
M  V30 END ATOM
M  V30 BEGIN BOND
M  V30 1 1 1 2
M  V30 2 1 2 3
M  V30 3 1 3 4
M  V30 4 1 3 5
M  V30 5 1 5 6
M  V30 6 1 5 7
M  V30 7 2 7 8
M  V30 8 1 8 9
M  V30 9 2 9 10
M  V30 10 1 10 11
M  V30 11 1 11 12
M  V30 12 1 12 13
M  V30 13 2 13 14
M  V30 14 1 14 15
M  V30 15 2 15 16
M  V30 16 1 16 17
M  V30 17 2 17 18
M  V30 18 1 18 19
M  V30 19 2 19 20
M  V30 20 1 20 21
M  V30 21 1 21 22
M  V30 22 1 22 23
M  V30 23 1 23 24
M  V30 24 1 24 25
M  V30 25 1 25 26
M  V30 26 1 25 27
M  V30 27 1 27 28
M  V30 28 1 27 29
M  V30 29 1 29 30
M  V30 30 1 29 31
M  V30 31 1 31 32
M  V30 32 1 21 33
M  V30 33 1 33 34
M  V30 34 1 34 35
M  V30 35 1 35 36
M  V30 36 1 36 37 CFG=3
M  V30 37 1 36 38
M  V30 38 1 38 39
M  V30 39 1 39 40
M  V30 40 1 39 41
M  V30 41 1 41 42
M  V30 42 1 41 43
M  V30 43 1 43 44
M  V30 44 1 44 45
M  V30 45 1 45 46
M  V30 46 1 45 47
M  V30 47 1 47 48
M  V30 48 1 48 49
M  V30 49 1 48 50
M  V30 50 1 50 51
M  V30 51 1 51 52
M  V30 52 1 51 53
M  V30 53 1 53 54
M  V30 54 2 54 55
M  V30 55 1 54 56
M  V30 56 1 56 57
M  V30 57 1 57 58
M  V30 58 1 36 59
M  V30 59 1 59 60
M  V30 60 1 60 61
M  V30 61 1 60 62
M  V30 62 1 62 63
M  V30 63 2 63 64
M  V30 64 1 63 65
M  V30 65 1 57 2
M  V30 66 1 31 23
M  V30 67 1 62 34
M  V30 68 1 1 66
M  V30 69 1 1 67
M  V30 70 1 1 68
M  V30 71 1 2 69 CFG=1
M  V30 72 1 3 70 CFG=1
M  V30 73 1 4 71
M  V30 74 1 5 72 CFG=1
M  V30 75 1 6 73
M  V30 76 1 6 74
M  V30 77 1 6 75
M  V30 78 1 7 76
M  V30 79 1 8 77
M  V30 80 1 9 78
M  V30 81 1 10 79
M  V30 82 1 11 80
M  V30 83 1 11 81
M  V30 84 1 12 82
M  V30 85 1 12 83
M  V30 86 1 13 84
M  V30 87 1 14 85
M  V30 88 1 15 86
M  V30 89 1 16 87
M  V30 90 1 17 88
M  V30 91 1 18 89
M  V30 92 1 19 90
M  V30 93 1 20 91
M  V30 94 1 21 92 CFG=1
M  V30 95 1 23 93 CFG=1
M  V30 96 1 25 94 CFG=1
M  V30 97 1 26 95
M  V30 98 1 26 96
M  V30 99 1 26 97
M  V30 100 1 27 98 CFG=3
M  V30 101 1 28 99
M  V30 102 1 29 100 CFG=1
M  V30 103 1 30 101
M  V30 104 1 30 102
M  V30 105 1 31 103 CFG=1
M  V30 106 1 32 104
M  V30 107 1 33 105
M  V30 108 1 33 106
M  V30 109 1 34 107 CFG=1
M  V30 110 1 37 108
M  V30 111 1 38 109
M  V30 112 1 38 110
M  V30 113 1 39 111 CFG=3
M  V30 114 1 40 112
M  V30 115 1 41 113 CFG=3
M  V30 116 1 42 114
M  V30 117 1 43 115
M  V30 118 1 43 116
M  V30 119 1 44 117
M  V30 120 1 44 118
M  V30 121 1 45 119 CFG=1
M  V30 122 1 46 120
M  V30 123 1 47 121
M  V30 124 1 47 122
M  V30 125 1 48 123 CFG=1
M  V30 126 1 49 124
M  V30 127 1 50 125
M  V30 128 1 50 126
M  V30 129 1 51 127 CFG=3
M  V30 130 1 52 128
M  V30 131 1 53 129
M  V30 132 1 53 130
M  V30 133 1 57 131 CFG=1
M  V30 134 1 58 132
M  V30 135 1 58 133
M  V30 136 1 58 134
M  V30 137 1 59 135
M  V30 138 1 59 136
M  V30 139 1 60 137 CFG=1
M  V30 140 1 61 138
M  V30 141 1 62 139 CFG=3
M  V30 142 1 65 140
M  V30 END BOND
M  V30 END CTAB
M  END
>  <Dataset>  (685) 
OralDrugs

>  <Ligand_Instance>  (685) 
nan

>  <PDB_ID>  (685) 
nan

>  <Standardized_SMILES>  (685) 
C[C@@H]1[C@H](O)[C@@H](C)/C=C/C=C/CC/C=C/C=C/C=C/C=C/[C@H](O[C@@H]2O[C@H](C)[C@@H](O)[C@H](N)[C@@H]2O)C[C@@H]2O[C@](O)(C[C@@H](O)[C@H](O)CC[C@@H](O)C[C@@H](O)C[C@@H](O)CC(=O)O[C@H]1C)C[C@H](O)[C@H]2C(=O)O

>  <Name>  (685) 
Nystatin

>  <Pocket>  (685) 
nan

>  <ATP_Site>  (685) 
nan

>  <Peripheral>  (685) 
nan

>  <Num_H_Atoms_ProtBoundConf>  (685) 
nan

>  <Num_Resolved_Atoms>  (685) 
nan

>  <Num_Not_Resolved_Atoms>  (685) 
nan

$$$$
CHEMBL566315
     RDKit          3D

  0  0  0  0  0  0  0  0  0  0999 V3000
M  V30 BEGIN CTAB
M  V30 COUNTS 74 77 0 0 0
M  V30 BEGIN ATOM
M  V30 1 C 0.091333 3.392320 0.252420 0
M  V30 2 C 1.123540 2.381130 0.688602 0
M  V30 3 C 0.669603 1.695617 1.934576 0 CFG=1
M  V30 4 C -0.647887 0.947873 1.785659 0 CFG=1
M  V30 5 O -1.591625 1.828759 1.302893 0
M  V30 6 C -0.570907 -0.373287 1.152800 0 CFG=2
M  V30 7 C 0.849158 -0.934403 1.343784 0 CFG=2
M  V30 8 C 0.758560 -2.386525 0.992508 0
M  V30 9 C 0.544314 -2.479638 -0.503980 0
M  V30 10 C -0.853004 -1.912642 -0.794282 0 CFG=2
M  V30 11 C -1.818413 -2.819750 -0.202063 0
M  V30 12 C -1.014669 -1.615170 -2.265289 0 CFG=1
M  V30 13 C -1.430374 -2.648896 -3.181149 0 CFG=2
M  V30 14 C -1.406846 -1.958548 -4.632193 0
M  V30 15 C -2.645546 -3.448678 -3.179939 0
M  V30 16 C -4.001639 -2.894547 -3.365876 0
M  V30 17 C -4.629093 -1.939094 -2.495638 0
M  V30 18 O -4.838935 -0.673709 -2.508153 0
M  V30 19 O -5.303846 -1.473280 -1.382444 0
M  V30 20 C -1.612219 -0.241834 -2.345898 0
M  V30 21 C -2.006113 0.062816 -0.909129 0
M  V30 22 C -0.778538 -0.490835 -0.274260 0 CFG=1
M  V30 23 C 1.450474 -0.598900 2.648135 0 CFG=1
M  V30 24 C 0.645105 -1.034218 3.837690 0
M  V30 25 C 2.774529 -1.357291 2.707596 0
M  V30 26 C 3.601963 -0.686469 3.782116 0
M  V30 27 C 4.107098 0.594604 3.175099 0 CFG=1
M  V30 28 O 5.242985 0.233131 2.416539 0
M  V30 29 C 3.115470 1.258892 2.251370 0
M  V30 30 C 1.694257 0.915047 2.671929 0 CFG=1
M  V30 31 H -0.422658 3.872641 1.110534 0
M  V30 32 H -0.603998 2.989382 -0.514900 0
M  V30 33 H 0.599620 4.247407 -0.269912 0
M  V30 34 H 2.003781 3.010448 0.994433 0
M  V30 35 H 1.460838 1.780907 -0.136605 0
M  V30 36 H 0.399730 2.577122 2.592722 0
M  V30 37 H -0.960447 0.813971 2.868651 0
M  V30 38 H -2.501682 1.512766 1.581552 0
M  V30 39 H -1.193203 -1.099312 1.738679 0
M  V30 40 H 1.540562 -0.512842 0.558375 0
M  V30 41 H 1.799745 -2.797775 1.154467 0
M  V30 42 H 0.018376 -2.950335 1.563179 0
M  V30 43 H 0.645671 -3.491344 -0.901686 0
M  V30 44 H 1.300217 -1.818379 -0.979180 0
M  V30 45 H -1.902947 -2.795760 0.909734 0
M  V30 46 H -1.440094 -3.877553 -0.370985 0
M  V30 47 H -2.828199 -2.664225 -0.560466 0
M  V30 48 H 0.103237 -1.405368 -2.555874 0
M  V30 49 H -0.555219 -3.354999 -3.355451 0
M  V30 50 H -0.467240 -1.380260 -4.587618 0
M  V30 51 H -1.299426 -2.734872 -5.383412 0
M  V30 52 H -2.241007 -1.274661 -4.707038 0
M  V30 53 H -2.671927 -4.233291 -2.355259 0
M  V30 54 H -2.588187 -4.191391 -4.077421 0
M  V30 55 H -4.738708 -3.785845 -3.399594 0
M  V30 56 H -4.112543 -2.539632 -4.448283 0
M  V30 57 H -5.197900 -1.952113 -0.499542 0
M  V30 58 H -0.796847 0.534640 -2.544671 0
M  V30 59 H -2.341325 -0.041765 -3.098827 0
M  V30 60 H -2.126994 1.161751 -0.864299 0
M  V30 61 H -2.916410 -0.477251 -0.623257 0
M  V30 62 H 0.088429 -0.060394 -0.821627 0
M  V30 63 H 0.544301 -0.167748 4.555163 0
M  V30 64 H -0.356511 -1.402914 3.623682 0
M  V30 65 H 1.142733 -1.823229 4.454829 0
M  V30 66 H 3.224321 -1.285783 1.707937 0
M  V30 67 H 2.594623 -2.386861 3.044854 0
M  V30 68 H 4.468683 -1.339320 4.042988 0
M  V30 69 H 2.977137 -0.508133 4.670867 0
M  V30 70 H 4.447574 1.225323 4.009020 0
M  V30 71 H 5.407133 0.890895 1.720450 0
M  V30 72 H 3.305485 1.079166 1.179489 0
M  V30 73 H 3.217777 2.352744 2.495539 0
M  V30 74 H 1.690980 1.146508 3.766804 0
M  V30 END ATOM
M  V30 BEGIN BOND
M  V30 1 1 1 2
M  V30 2 1 2 3
M  V30 3 1 3 4
M  V30 4 1 4 5
M  V30 5 1 4 6
M  V30 6 1 6 7
M  V30 7 1 7 8
M  V30 8 1 8 9
M  V30 9 1 9 10
M  V30 10 1 10 11 CFG=1
M  V30 11 1 10 12
M  V30 12 1 12 13
M  V30 13 1 13 14
M  V30 14 1 13 15
M  V30 15 1 15 16
M  V30 16 1 16 17
M  V30 17 2 17 18
M  V30 18 1 17 19
M  V30 19 1 12 20
M  V30 20 1 20 21
M  V30 21 1 21 22
M  V30 22 1 7 23
M  V30 23 1 23 24 CFG=1
M  V30 24 1 23 25
M  V30 25 1 25 26
M  V30 26 1 26 27
M  V30 27 1 27 28
M  V30 28 1 27 29
M  V30 29 1 29 30
M  V30 30 1 30 3
M  V30 31 1 22 6
M  V30 32 1 30 23
M  V30 33 1 22 10
M  V30 34 1 1 31
M  V30 35 1 1 32
M  V30 36 1 1 33
M  V30 37 1 2 34
M  V30 38 1 2 35
M  V30 39 1 3 36 CFG=1
M  V30 40 1 4 37 CFG=1
M  V30 41 1 5 38
M  V30 42 1 6 39 CFG=1
M  V30 43 1 7 40 CFG=3
M  V30 44 1 8 41
M  V30 45 1 8 42
M  V30 46 1 9 43
M  V30 47 1 9 44
M  V30 48 1 11 45
M  V30 49 1 11 46
M  V30 50 1 11 47
M  V30 51 1 12 48 CFG=3
M  V30 52 1 13 49 CFG=3
M  V30 53 1 14 50
M  V30 54 1 14 51
M  V30 55 1 14 52
M  V30 56 1 15 53
M  V30 57 1 15 54
M  V30 58 1 16 55
M  V30 59 1 16 56
M  V30 60 1 19 57
M  V30 61 1 20 58
M  V30 62 1 20 59
M  V30 63 1 21 60
M  V30 64 1 21 61
M  V30 65 1 22 62 CFG=3
M  V30 66 1 24 63
M  V30 67 1 24 64
M  V30 68 1 24 65
M  V30 69 1 25 66
M  V30 70 1 25 67
M  V30 71 1 26 68
M  V30 72 1 26 69
M  V30 73 1 27 70 CFG=1
M  V30 74 1 28 71
M  V30 75 1 29 72
M  V30 76 1 29 73
M  V30 77 1 30 74 CFG=1
M  V30 END BOND
M  V30 END CTAB
M  END
>  <Dataset>  (686) 
OralDrugs

>  <Ligand_Instance>  (686) 
nan

>  <PDB_ID>  (686) 
nan

>  <Standardized_SMILES>  (686) 
CC[C@H]1[C@@H](O)[C@@H]2[C@H](CC[C@]3(C)[C@@H]([C@H](C)CCC(=O)O)CC[C@@H]23)[C@@]2(C)CC[C@@H](O)C[C@@H]12

>  <Name>  (686) 
Obeticholic Acid

>  <Pocket>  (686) 
nan

>  <ATP_Site>  (686) 
nan

>  <Peripheral>  (686) 
nan

>  <Num_H_Atoms_ProtBoundConf>  (686) 
nan

>  <Num_Resolved_Atoms>  (686) 
nan

>  <Num_Not_Resolved_Atoms>  (686) 
nan

$$$$
CHEMBL4297588
     RDKit          3D

  0  0  0  0  0  0  0  0  0  0999 V3000
M  V30 BEGIN CTAB
M  V30 COUNTS 99 102 0 0 0
M  V30 BEGIN ATOM
M  V30 1 C 3.830780 -4.698445 -2.498560 0
M  V30 2 C 2.355269 -4.540786 -2.703232 0
M  V30 3 C 2.148422 -3.108788 -3.277760 0
M  V30 4 C 2.673905 -2.189737 -2.259692 0
M  V30 5 C 2.539008 -0.664512 -2.611961 0
M  V30 6 C 3.343580 -0.514888 -3.878243 0
M  V30 7 C 3.417331 0.740046 -4.609052 0
M  V30 8 C 3.878245 2.032071 -4.074337 0
M  V30 9 C 3.019836 2.671895 -3.022460 0
M  V30 10 C 3.273031 -0.035765 -1.507181 0
M  V30 11 N 2.620006 0.686828 -0.458961 0
M  V30 12 C 3.581976 0.886638 0.621732 0
M  V30 13 C 4.872312 1.246835 0.420934 0
M  V30 14 C 5.792308 1.391888 1.435353 0
M  V30 15 C 5.408611 1.165341 2.735081 0
M  V30 16 C 4.117093 0.799164 3.002147 0
M  V30 17 C 3.246278 0.669030 1.965202 0
M  V30 18 C 1.363735 1.264696 -0.124645 0
M  V30 19 C 1.388124 2.326359 0.750752 0
M  V30 20 C 0.155925 2.889019 1.096790 0
M  V30 21 S 0.324321 4.273302 2.240872 0
M  V30 22 C 0.492903 5.783389 1.213345 0
M  V30 23 C -1.056272 2.408254 0.586506 0
M  V30 24 O -2.096035 3.135463 1.087252 0
M  V30 25 C -3.454166 3.037040 0.876171 0
M  V30 26 C -4.094257 1.759245 1.257244 0
M  V30 27 O -5.350184 1.817813 1.002181 0
M  V30 28 N -3.625045 0.544356 1.818316 0
M  V30 29 C -4.607687 -0.529626 2.053239 0 CFG=1
M  V30 30 C -4.351957 -1.497103 0.928022 0
M  V30 31 O -3.411100 -1.287606 0.129267 0
M  V30 32 N -5.109697 -2.661625 0.683848 0
M  V30 33 C -4.735814 -3.488024 -0.445503 0 CFG=1
M  V30 34 C -4.476347 -4.916762 -0.097412 0
M  V30 35 C -4.091967 -5.663004 -1.350599 0
M  V30 36 C -5.913257 -3.443804 -1.391610 0
M  V30 37 O -5.967583 -4.049230 -2.508757 0
M  V30 38 O -7.121143 -2.769194 -1.251630 0
M  V30 39 C -4.326612 -1.118616 3.376038 0
M  V30 40 C -4.181719 -2.418033 3.810656 0
M  V30 41 C -3.923051 -2.742325 5.122575 0
M  V30 42 C -3.794636 -1.755349 6.080668 0
M  V30 43 O -3.531750 -2.231505 7.372280 0
M  V30 44 C -3.932797 -0.444243 5.684934 0
M  V30 45 C -4.191612 -0.137676 4.368621 0
M  V30 46 C -1.044849 1.348051 -0.285987 0
M  V30 47 C 0.159724 0.809310 -0.615696 0
M  V30 48 S -0.030408 -0.520768 -1.789206 0
M  V30 49 O -1.317997 -0.235024 -2.511098 0
M  V30 50 O -0.156473 -1.833176 -1.127438 0
M  V30 51 N 1.213802 -0.452621 -2.926829 0
M  V30 52 H 4.051002 -5.799468 -2.459992 0
M  V30 53 H 4.425193 -4.339002 -3.370081 0
M  V30 54 H 4.213897 -4.180781 -1.604103 0
M  V30 55 H 1.847280 -4.528249 -1.706230 0
M  V30 56 H 1.916475 -5.278481 -3.375008 0
M  V30 57 H 2.772799 -3.149920 -4.205291 0
M  V30 58 H 1.105967 -2.977033 -3.568466 0
M  V30 59 H 2.308021 -2.367420 -1.243927 0
M  V30 60 H 3.800047 -2.290733 -2.201208 0
M  V30 61 H 4.428935 -0.836010 -3.676351 0
M  V30 62 H 3.042960 -1.316953 -4.628294 0
M  V30 63 H 4.036781 0.558754 -5.580382 0
M  V30 64 H 2.412278 0.993957 -5.115741 0
M  V30 65 H 4.940036 1.909355 -3.674699 0
M  V30 66 H 3.925819 2.781672 -4.918076 0
M  V30 67 H 3.528553 2.793682 -2.031764 0
M  V30 68 H 2.054857 2.148120 -2.928703 0
M  V30 69 H 2.731053 3.735298 -3.328960 0
M  V30 70 H 4.173520 0.506812 -1.927978 0
M  V30 71 H 3.873933 -0.900122 -0.977853 0
M  V30 72 H 5.261068 1.446667 -0.548250 0
M  V30 73 H 6.812015 1.675663 1.273345 0
M  V30 74 H 6.128149 1.277919 3.538103 0
M  V30 75 H 3.832424 0.623483 4.029847 0
M  V30 76 H 2.223051 0.377221 2.196177 0
M  V30 77 H 2.347781 2.659122 1.098285 0
M  V30 78 H 0.224175 5.576652 0.144899 0
M  V30 79 H 1.563218 6.095239 1.224666 0
M  V30 80 H -0.149070 6.553246 1.668150 0
M  V30 81 H -4.032364 3.857574 1.387607 0
M  V30 82 H -3.625317 3.259916 -0.220803 0
M  V30 83 H -2.605050 0.588859 1.996631 0
M  V30 84 H -5.625920 -0.165108 1.912002 0
M  V30 85 H -5.911412 -2.895369 1.303921 0
M  V30 86 H -3.878586 -3.111572 -0.996979 0
M  V30 87 H -5.380525 -5.429752 0.322492 0
M  V30 88 H -3.625486 -4.978729 0.612174 0
M  V30 89 H -4.851971 -6.402882 -1.677580 0
M  V30 90 H -3.162359 -6.278179 -1.161204 0
M  V30 91 H -3.870276 -5.003272 -2.216975 0
M  V30 92 H -7.456990 -2.166305 -1.976843 0
M  V30 93 H -4.290306 -3.125603 3.002734 0
M  V30 94 H -3.840970 -3.825231 5.278956 0
M  V30 95 H -2.663671 -2.767620 7.515707 0
M  V30 96 H -3.820666 0.266602 6.483649 0
M  V30 97 H -4.271816 0.941056 4.224185 0
M  V30 98 H -1.997711 1.018424 -0.648494 0
M  V30 99 H 0.926018 -0.983247 -3.766320 0
M  V30 END ATOM
M  V30 BEGIN BOND
M  V30 1 1 1 2
M  V30 2 1 2 3
M  V30 3 1 3 4
M  V30 4 1 4 5
M  V30 5 1 5 6
M  V30 6 1 6 7
M  V30 7 1 7 8
M  V30 8 1 8 9
M  V30 9 1 5 10
M  V30 10 1 10 11
M  V30 11 1 11 12
M  V30 12 2 12 13
M  V30 13 1 13 14
M  V30 14 2 14 15
M  V30 15 1 15 16
M  V30 16 2 16 17
M  V30 17 1 11 18
M  V30 18 2 18 19
M  V30 19 1 19 20
M  V30 20 1 20 21
M  V30 21 1 21 22
M  V30 22 2 20 23
M  V30 23 1 23 24
M  V30 24 1 24 25
M  V30 25 1 25 26
M  V30 26 2 26 27
M  V30 27 1 26 28
M  V30 28 1 28 29
M  V30 29 1 29 30
M  V30 30 2 30 31
M  V30 31 1 30 32
M  V30 32 1 32 33
M  V30 33 1 33 34
M  V30 34 1 34 35
M  V30 35 1 33 36
M  V30 36 2 36 37
M  V30 37 1 36 38
M  V30 38 1 29 39
M  V30 39 2 39 40
M  V30 40 1 40 41
M  V30 41 2 41 42
M  V30 42 1 42 43
M  V30 43 1 42 44
M  V30 44 2 44 45
M  V30 45 1 23 46
M  V30 46 2 46 47
M  V30 47 1 47 48
M  V30 48 2 48 49
M  V30 49 2 48 50
M  V30 50 1 48 51
M  V30 51 1 51 5
M  V30 52 1 17 12
M  V30 53 1 47 18
M  V30 54 1 45 39
M  V30 55 1 1 52
M  V30 56 1 1 53
M  V30 57 1 1 54
M  V30 58 1 2 55
M  V30 59 1 2 56
M  V30 60 1 3 57
M  V30 61 1 3 58
M  V30 62 1 4 59
M  V30 63 1 4 60
M  V30 64 1 6 61
M  V30 65 1 6 62
M  V30 66 1 7 63
M  V30 67 1 7 64
M  V30 68 1 8 65
M  V30 69 1 8 66
M  V30 70 1 9 67
M  V30 71 1 9 68
M  V30 72 1 9 69
M  V30 73 1 10 70
M  V30 74 1 10 71
M  V30 75 1 13 72
M  V30 76 1 14 73
M  V30 77 1 15 74
M  V30 78 1 16 75
M  V30 79 1 17 76
M  V30 80 1 19 77
M  V30 81 1 22 78
M  V30 82 1 22 79
M  V30 83 1 22 80
M  V30 84 1 25 81
M  V30 85 1 25 82
M  V30 86 1 28 83
M  V30 87 1 29 84 CFG=1
M  V30 88 1 32 85
M  V30 89 1 33 86 CFG=3
M  V30 90 1 34 87
M  V30 91 1 34 88
M  V30 92 1 35 89
M  V30 93 1 35 90
M  V30 94 1 35 91
M  V30 95 1 38 92
M  V30 96 1 40 93
M  V30 97 1 41 94
M  V30 98 1 43 95
M  V30 99 1 44 96
M  V30 100 1 45 97
M  V30 101 1 46 98
M  V30 102 1 51 99
M  V30 END BOND
M  V30 END CTAB
M  END
>  <Dataset>  (687) 
OralDrugs

>  <Ligand_Instance>  (687) 
nan

>  <PDB_ID>  (687) 
nan

>  <Standardized_SMILES>  (687) 
CCCCC1(CCCC)CN(c2ccccc2)c2cc(SC)c(OCC(=O)N[C@@H](C(=O)N[C@@H](CC)C(=O)O)c3ccc(O)cc3)cc2S(=O)(=O)N1

>  <Name>  (687) 
Odevixibat

>  <Pocket>  (687) 
nan

>  <ATP_Site>  (687) 
nan

>  <Peripheral>  (687) 
nan

>  <Num_H_Atoms_ProtBoundConf>  (687) 
nan

>  <Num_Resolved_Atoms>  (687) 
nan

>  <Num_Not_Resolved_Atoms>  (687) 
nan

$$$$
CHEMBL4
     RDKit          3D

  0  0  0  0  0  0  0  0  0  0999 V3000
M  V30 BEGIN CTAB
M  V30 COUNTS 46 49 0 0 0
M  V30 BEGIN ATOM
M  V30 1 C -0.141761 -3.577608 2.546613 0
M  V30 2 C -0.641548 -3.427279 1.126383 0
M  V30 3 C 0.585324 -3.167234 0.252665 0
M  V30 4 O 0.957505 -1.808818 0.354279 0
M  V30 5 C 0.097764 -0.768751 0.259045 0
M  V30 6 C 0.538690 0.487037 -0.171643 0
M  V30 7 N 1.840567 0.795959 -0.546808 0
M  V30 8 C 2.392908 2.063930 -0.971614 0
M  V30 9 C 3.709856 2.218094 -0.220630 0
M  V30 10 N 3.784239 1.405674 0.945150 0
M  V30 11 C 3.470639 1.968728 2.178518 0
M  V30 12 C 3.636970 0.009227 0.740657 0
M  V30 13 C 2.927847 -0.164309 -0.586408 0
M  V30 14 C -0.485039 1.411651 -0.198729 0
M  V30 15 F -0.334728 2.684471 -0.574262 0
M  V30 16 C -1.802486 1.156618 0.152657 0
M  V30 17 C -2.217964 -0.105922 0.579253 0
M  V30 18 C -3.536882 -0.354927 0.930507 0
M  V30 19 O -4.378363 0.577813 0.861964 0
M  V30 20 C -3.848766 -1.634775 1.340891 0
M  V30 21 C -5.200790 -1.958511 1.719354 0
M  V30 22 O -5.505584 -3.118687 2.096134 0
M  V30 23 O -6.193462 -1.017501 1.681230 0
M  V30 24 C -2.814753 -2.550539 1.363295 0
M  V30 25 N -1.529331 -2.281383 1.013799 0
M  V30 26 C -1.189894 -1.054609 0.611779 0
M  V30 27 H 0.185222 -4.631168 2.674266 0
M  V30 28 H 0.709363 -2.876832 2.665703 0
M  V30 29 H -0.922797 -3.280838 3.293661 0
M  V30 30 H -1.151684 -4.328977 0.784396 0
M  V30 31 H 0.350739 -3.394941 -0.817683 0
M  V30 32 H 1.425103 -3.804725 0.588771 0
M  V30 33 H 1.777603 2.930695 -0.962846 0
M  V30 34 H 2.651321 1.895895 -2.065629 0
M  V30 35 H 3.925953 3.262966 0.063255 0
M  V30 36 H 4.547486 1.912377 -0.881652 0
M  V30 37 H 2.676681 1.387176 2.717774 0
M  V30 38 H 3.065207 2.997591 2.035975 0
M  V30 39 H 4.346523 1.984142 2.858525 0
M  V30 40 H 3.054235 -0.481589 1.513252 0
M  V30 41 H 4.637303 -0.457621 0.691540 0
M  V30 42 H 3.725444 0.108710 -1.349735 0
M  V30 43 H 2.684796 -1.173999 -0.872950 0
M  V30 44 H -2.605643 1.887003 0.130190 0
M  V30 45 H -7.187158 -1.236876 1.642438 0
M  V30 46 H -3.128357 -3.533809 1.694568 0
M  V30 END ATOM
M  V30 BEGIN BOND
M  V30 1 1 1 2
M  V30 2 1 2 3
M  V30 3 1 3 4
M  V30 4 1 4 5
M  V30 5 1 5 6
M  V30 6 1 6 7
M  V30 7 1 7 8
M  V30 8 1 8 9
M  V30 9 1 9 10
M  V30 10 1 10 11
M  V30 11 1 10 12
M  V30 12 1 12 13
M  V30 13 2 6 14
M  V30 14 1 14 15
M  V30 15 1 14 16
M  V30 16 2 16 17
M  V30 17 1 17 18
M  V30 18 2 18 19
M  V30 19 1 18 20
M  V30 20 1 20 21
M  V30 21 2 21 22
M  V30 22 1 21 23
M  V30 23 2 20 24
M  V30 24 1 24 25
M  V30 25 1 25 26
M  V30 26 1 25 2
M  V30 27 2 26 5
M  V30 28 1 13 7
M  V30 29 1 26 17
M  V30 30 1 1 27
M  V30 31 1 1 28
M  V30 32 1 1 29
M  V30 33 1 2 30
M  V30 34 1 3 31
M  V30 35 1 3 32
M  V30 36 1 8 33
M  V30 37 1 8 34
M  V30 38 1 9 35
M  V30 39 1 9 36
M  V30 40 1 11 37
M  V30 41 1 11 38
M  V30 42 1 11 39
M  V30 43 1 12 40
M  V30 44 1 12 41
M  V30 45 1 13 42
M  V30 46 1 13 43
M  V30 47 1 16 44
M  V30 48 1 23 45
M  V30 49 1 24 46
M  V30 END BOND
M  V30 END CTAB
M  END
>  <Dataset>  (688) 
OralDrugs

>  <Ligand_Instance>  (688) 
nan

>  <PDB_ID>  (688) 
nan

>  <Standardized_SMILES>  (688) 
CC1COc2c(N3CCN(C)CC3)c(F)cc3c(=O)c(C(=O)O)cn1c23

>  <Name>  (688) 
Ofloxacin

>  <Pocket>  (688) 
nan

>  <ATP_Site>  (688) 
nan

>  <Peripheral>  (688) 
nan

>  <Num_H_Atoms_ProtBoundConf>  (688) 
nan

>  <Num_Resolved_Atoms>  (688) 
nan

>  <Num_Not_Resolved_Atoms>  (688) 
nan

$$$$
CHEMBL715
     RDKit          3D

  0  0  0  0  0  0  0  0  0  0999 V3000
M  V30 BEGIN CTAB
M  V30 COUNTS 42 45 0 0 0
M  V30 BEGIN ATOM
M  V30 1 C 2.316847 -3.672399 4.526844 0
M  V30 2 C 2.268074 -2.998837 3.220792 0
M  V30 3 C 1.359094 -2.105210 2.727477 0
M  V30 4 C 1.480022 -1.580870 1.477581 0
M  V30 5 C 2.658877 -2.082971 0.774085 0
M  V30 6 S 3.465246 -3.227263 1.930665 0
M  V30 7 N 3.165166 -1.784342 -0.577765 0
M  V30 8 C 2.834526 -0.629262 -1.335704 0
M  V30 9 C 3.822768 -0.489648 -2.277879 0
M  V30 10 C 3.698045 0.598436 -3.144115 0
M  V30 11 C 2.612807 1.456040 -3.010173 0
M  V30 12 C 1.646147 1.248389 -2.025306 0
M  V30 13 C 1.735971 0.179576 -1.147414 0
M  V30 14 N 0.704208 0.068830 -0.198011 0
M  V30 15 C 0.568189 -0.630676 0.871413 0
M  V30 16 N -0.647191 -0.477298 1.595824 0
M  V30 17 C -0.884157 0.773931 2.307879 0
M  V30 18 C -2.022369 1.449306 1.617702 0
M  V30 19 N -3.057380 0.651541 1.112967 0
M  V30 20 C -3.176913 0.854535 -0.319560 0
M  V30 21 C -3.076846 -0.739993 1.385202 0
M  V30 22 C -1.805291 -1.361805 1.804373 0
M  V30 23 H 2.372154 -4.779070 4.307641 0
M  V30 24 H 1.354536 -3.523831 5.010964 0
M  V30 25 H 3.202371 -3.414955 5.111775 0
M  V30 26 H 0.533125 -1.822635 3.362509 0
M  V30 27 H 3.797946 -2.535193 -0.897234 0
M  V30 28 H 4.652956 -1.175005 -2.354658 0
M  V30 29 H 4.450489 0.753559 -3.904975 0
M  V30 30 H 2.529952 2.299145 -3.692743 0
M  V30 31 H 0.792063 1.911218 -1.909122 0
M  V30 32 H -0.008524 1.449991 2.237550 0
M  V30 33 H -1.180225 0.568952 3.355199 0
M  V30 34 H -1.638638 2.156367 0.843997 0
M  V30 35 H -2.481482 2.136168 2.389504 0
M  V30 36 H -3.538070 1.885253 -0.521009 0
M  V30 37 H -3.725822 0.064603 -0.831694 0
M  V30 38 H -2.123176 0.828502 -0.717963 0
M  V30 39 H -3.472133 -1.307468 0.491831 0
M  V30 40 H -3.846405 -0.921505 2.165167 0
M  V30 41 H -1.662505 -2.339164 1.352780 0
M  V30 42 H -1.809559 -1.527485 2.915315 0
M  V30 END ATOM
M  V30 BEGIN BOND
M  V30 1 1 1 2
M  V30 2 2 2 3
M  V30 3 1 3 4
M  V30 4 2 4 5
M  V30 5 1 5 6
M  V30 6 1 5 7
M  V30 7 1 7 8
M  V30 8 2 8 9
M  V30 9 1 9 10
M  V30 10 2 10 11
M  V30 11 1 11 12
M  V30 12 2 12 13
M  V30 13 1 13 14
M  V30 14 2 14 15
M  V30 15 1 15 16
M  V30 16 1 16 17
M  V30 17 1 17 18
M  V30 18 1 18 19
M  V30 19 1 19 20
M  V30 20 1 19 21
M  V30 21 1 21 22
M  V30 22 1 6 2
M  V30 23 1 13 8
M  V30 24 1 22 16
M  V30 25 1 15 4
M  V30 26 1 1 23
M  V30 27 1 1 24
M  V30 28 1 1 25
M  V30 29 1 3 26
M  V30 30 1 7 27
M  V30 31 1 9 28
M  V30 32 1 10 29
M  V30 33 1 11 30
M  V30 34 1 12 31
M  V30 35 1 17 32
M  V30 36 1 17 33
M  V30 37 1 18 34
M  V30 38 1 18 35
M  V30 39 1 20 36
M  V30 40 1 20 37
M  V30 41 1 20 38
M  V30 42 1 21 39
M  V30 43 1 21 40
M  V30 44 1 22 41
M  V30 45 1 22 42
M  V30 END BOND
M  V30 END CTAB
M  END
>  <Dataset>  (689) 
OralDrugs

>  <Ligand_Instance>  (689) 
nan

>  <PDB_ID>  (689) 
nan

>  <Standardized_SMILES>  (689) 
Cc1cc2c(s1)Nc1ccccc1N=C2N1CCN(C)CC1

>  <Name>  (689) 
Olanzapine

>  <Pocket>  (689) 
nan

>  <ATP_Site>  (689) 
nan

>  <Peripheral>  (689) 
nan

>  <Num_H_Atoms_ProtBoundConf>  (689) 
nan

>  <Num_Resolved_Atoms>  (689) 
nan

>  <Num_Not_Resolved_Atoms>  (689) 
nan

$$$$
CHEMBL521686
     RDKit          3D

  0  0  0  0  0  0  0  0  0  0999 V3000
M  V30 BEGIN CTAB
M  V30 COUNTS 55 59 0 0 0
M  V30 BEGIN ATOM
M  V30 1 O -1.345873 -2.404590 3.654004 0
M  V30 2 C -0.851388 -1.921125 2.604959 0
M  V30 3 C 0.420107 -1.793407 1.926409 0
M  V30 4 C 1.193480 -0.706348 2.250706 0
M  V30 5 C 2.409029 -0.474965 1.693112 0
M  V30 6 C 3.439679 0.584152 1.838085 0
M  V30 7 C 3.327671 1.611774 0.803372 0
M  V30 8 N 4.152634 1.470137 -0.276488 0
M  V30 9 N 4.111720 2.310201 -1.275323 0
M  V30 10 C 3.283794 3.367739 -1.348293 0
M  V30 11 O 3.260899 4.169304 -2.328059 0
M  V30 12 C 2.412878 3.595098 -0.304379 0
M  V30 13 C 1.519597 4.648824 -0.246819 0
M  V30 14 C 0.686569 4.807595 0.852380 0
M  V30 15 C 0.742730 3.901049 1.916045 0
M  V30 16 C 1.649539 2.868954 1.809242 0
M  V30 17 C 2.480915 2.693794 0.731251 0
M  V30 18 C 2.814400 -1.441448 0.752856 0
M  V30 19 C 2.071610 -2.561486 0.386527 0
M  V30 20 C 0.846346 -2.720745 1.002514 0
M  V30 21 F 0.081112 -3.803302 0.676085 0
M  V30 22 N -1.829515 -1.288285 1.802347 0
M  V30 23 C -3.187238 -1.305698 2.319869 0
M  V30 24 C -3.912978 -2.392386 1.508951 0
M  V30 25 N -3.203844 -2.539564 0.227877 0
M  V30 26 C -3.041640 -3.888806 -0.217686 0
M  V30 27 O -3.563574 -4.680229 0.614195 0
M  V30 28 C -2.356616 -4.272858 -1.475773 0
M  V30 29 C -2.875590 -5.371506 -2.334681 0
M  V30 30 C -1.587864 -5.526653 -1.567707 0
M  V30 31 C -2.777274 -1.288829 -0.387363 0
M  V30 32 C -1.791746 -0.608967 0.523091 0
M  V30 33 H 0.910273 0.027314 2.959224 0
M  V30 34 H 3.333942 0.999818 2.870944 0
M  V30 35 H 4.451337 0.141120 1.808576 0
M  V30 36 H 4.738601 2.220094 -2.120958 0
M  V30 37 H 1.496130 5.334342 -1.081607 0
M  V30 38 H -0.022655 5.634619 0.909702 0
M  V30 39 H 0.077320 4.047916 2.772127 0
M  V30 40 H 1.669875 2.203843 2.647752 0
M  V30 41 H 3.772452 -1.410416 0.204431 0
M  V30 42 H 2.409139 -3.284084 -0.338835 0
M  V30 43 H -3.212065 -1.520835 3.407296 0
M  V30 44 H -3.674899 -0.322137 2.179100 0
M  V30 45 H -3.953517 -3.330525 2.075009 0
M  V30 46 H -4.913481 -1.976048 1.268120 0
M  V30 47 H -1.968189 -3.408685 -2.054816 0
M  V30 48 H -2.795126 -5.284481 -3.448725 0
M  V30 49 H -3.720688 -5.998389 -2.039418 0
M  V30 50 H -1.556770 -6.265678 -0.743334 0
M  V30 51 H -0.662351 -5.585247 -2.197860 0
M  V30 52 H -2.409267 -1.427534 -1.423506 0
M  V30 53 H -3.695943 -0.645977 -0.447494 0
M  V30 54 H -0.791069 -0.576108 0.056865 0
M  V30 55 H -2.117537 0.448712 0.713350 0
M  V30 END ATOM
M  V30 BEGIN BOND
M  V30 1 2 1 2
M  V30 2 1 2 3
M  V30 3 2 3 4
M  V30 4 1 4 5
M  V30 5 1 5 6
M  V30 6 1 6 7
M  V30 7 2 7 8
M  V30 8 1 8 9
M  V30 9 1 9 10
M  V30 10 2 10 11
M  V30 11 1 10 12
M  V30 12 2 12 13
M  V30 13 1 13 14
M  V30 14 2 14 15
M  V30 15 1 15 16
M  V30 16 2 16 17
M  V30 17 2 5 18
M  V30 18 1 18 19
M  V30 19 2 19 20
M  V30 20 1 20 21
M  V30 21 1 2 22
M  V30 22 1 22 23
M  V30 23 1 23 24
M  V30 24 1 24 25
M  V30 25 1 25 26
M  V30 26 2 26 27
M  V30 27 1 26 28
M  V30 28 1 28 29
M  V30 29 1 29 30
M  V30 30 1 25 31
M  V30 31 1 31 32
M  V30 32 1 20 3
M  V30 33 1 32 22
M  V30 34 1 17 7
M  V30 35 1 30 28
M  V30 36 1 17 12
M  V30 37 1 4 33
M  V30 38 1 6 34
M  V30 39 1 6 35
M  V30 40 1 9 36
M  V30 41 1 13 37
M  V30 42 1 14 38
M  V30 43 1 15 39
M  V30 44 1 16 40
M  V30 45 1 18 41
M  V30 46 1 19 42
M  V30 47 1 23 43
M  V30 48 1 23 44
M  V30 49 1 24 45
M  V30 50 1 24 46
M  V30 51 1 28 47
M  V30 52 1 29 48
M  V30 53 1 29 49
M  V30 54 1 30 50
M  V30 55 1 30 51
M  V30 56 1 31 52
M  V30 57 1 31 53
M  V30 58 1 32 54
M  V30 59 1 32 55
M  V30 END BOND
M  V30 END CTAB
M  END
>  <Dataset>  (690) 
OralDrugs

>  <Ligand_Instance>  (690) 
nan

>  <PDB_ID>  (690) 
nan

>  <Standardized_SMILES>  (690) 
O=C(c1cc(Cc2n[nH]c(=O)c3ccccc23)ccc1F)N1CCN(C(=O)C2CC2)CC1

>  <Name>  (690) 
Olaparib

>  <Pocket>  (690) 
nan

>  <ATP_Site>  (690) 
nan

>  <Peripheral>  (690) 
nan

>  <Num_H_Atoms_ProtBoundConf>  (690) 
nan

>  <Num_Resolved_Atoms>  (690) 
nan

>  <Num_Not_Resolved_Atoms>  (690) 
nan

$$$$
CHEMBL3786343
     RDKit          3D

  0  0  0  0  0  0  0  0  0  0999 V3000
M  V30 BEGIN CTAB
M  V30 COUNTS 61 65 0 0 0
M  V30 BEGIN ATOM
M  V30 1 C 3.938526 -3.998557 2.541454 0
M  V30 2 C 4.319917 -2.827131 2.985807 0
M  V30 3 C 4.311365 -2.011857 1.772879 0
M  V30 4 O 3.951102 -2.737713 0.810291 0
M  V30 5 N 4.678034 -0.638500 1.845710 0
M  V30 6 C 4.732269 0.310566 0.790975 0
M  V30 7 C 5.865278 0.532855 0.029111 0
M  V30 8 C 5.920592 1.454759 -0.996443 0
M  V30 9 C 4.758147 2.187091 -1.256782 0
M  V30 10 C 3.589020 1.995174 -0.511299 0
M  V30 11 O 2.596035 2.812036 -0.941221 0
M  V30 12 C 1.316691 2.929093 -0.481064 0
M  V30 13 N 0.757805 2.235916 0.526898 0
M  V30 14 C -0.546611 2.542245 0.793410 0
M  V30 15 N -1.180703 1.819468 1.867643 0
M  V30 16 C -1.840908 0.606877 1.517105 0
M  V30 17 C -1.855135 0.170338 0.206512 0
M  V30 18 C -2.494327 -1.003433 -0.132487 0
M  V30 19 C -3.143802 -1.797706 0.788458 0
M  V30 20 N -3.798581 -3.002840 0.439483 0
M  V30 21 C -4.521904 -3.871399 1.328510 0
M  V30 22 C -3.794401 -5.192715 1.472275 0
M  V30 23 N -3.303609 -5.658791 0.190075 0
M  V30 24 C -1.867024 -5.502734 0.076539 0
M  V30 25 C -4.007314 -4.995148 -0.889498 0
M  V30 26 C -3.803339 -3.501334 -0.907556 0
M  V30 27 C -3.108118 -1.330024 2.084593 0
M  V30 28 C -2.480884 -0.162326 2.467391 0
M  V30 29 N -1.262081 3.451806 0.135774 0
M  V30 30 C -0.729886 4.176064 -0.893595 0
M  V30 31 C -1.414230 5.116808 -1.598992 0
M  V30 32 C -0.721559 5.747902 -2.600649 0
M  V30 33 S 1.004128 4.959515 -2.538227 0
M  V30 34 C 0.603516 3.890762 -1.196299 0
M  V30 35 C 3.626943 1.067963 0.477249 0
M  V30 36 H 3.791409 -4.938149 3.067371 0
M  V30 37 H 3.615487 -4.877353 2.002413 0
M  V30 38 H 4.509331 -2.847356 4.067735 0
M  V30 39 H 4.942702 -0.272830 2.793559 0
M  V30 40 H 6.768481 -0.039871 0.235492 0
M  V30 41 H 6.832829 1.583268 -1.555048 0
M  V30 42 H 4.891751 2.891849 -2.082576 0
M  V30 43 H -1.190024 2.117683 2.867702 0
M  V30 44 H -1.356484 0.763893 -0.551422 0
M  V30 45 H -2.460417 -1.274167 -1.175340 0
M  V30 46 H -4.669238 -3.467840 2.348313 0
M  V30 47 H -5.529353 -4.038971 0.894673 0
M  V30 48 H -4.554777 -5.923787 1.818995 0
M  V30 49 H -2.942331 -5.112158 2.152660 0
M  V30 50 H -1.647717 -4.500014 -0.359482 0
M  V30 51 H -1.430162 -5.572120 1.111646 0
M  V30 52 H -1.388192 -6.306985 -0.521345 0
M  V30 53 H -5.089654 -5.181109 -0.735372 0
M  V30 54 H -3.716399 -5.476882 -1.839752 0
M  V30 55 H -4.704402 -3.063292 -1.427638 0
M  V30 56 H -2.888185 -3.231625 -1.494690 0
M  V30 57 H -3.571137 -1.850442 2.888853 0
M  V30 58 H -2.448350 0.211037 3.479786 0
M  V30 59 H -2.439513 5.426009 -1.463437 0
M  V30 60 H -1.148592 6.582633 -3.309204 0
M  V30 61 H 2.700171 0.962934 1.017508 0
M  V30 END ATOM
M  V30 BEGIN BOND
M  V30 1 2 1 2
M  V30 2 1 2 3
M  V30 3 2 3 4
M  V30 4 1 3 5
M  V30 5 1 5 6
M  V30 6 2 6 7
M  V30 7 1 7 8
M  V30 8 2 8 9
M  V30 9 1 9 10
M  V30 10 1 10 11
M  V30 11 1 11 12
M  V30 12 2 12 13
M  V30 13 1 13 14
M  V30 14 1 14 15
M  V30 15 1 15 16
M  V30 16 2 16 17
M  V30 17 1 17 18
M  V30 18 2 18 19
M  V30 19 1 19 20
M  V30 20 1 20 21
M  V30 21 1 21 22
M  V30 22 1 22 23
M  V30 23 1 23 24
M  V30 24 1 23 25
M  V30 25 1 25 26
M  V30 26 1 19 27
M  V30 27 2 27 28
M  V30 28 2 14 29
M  V30 29 1 29 30
M  V30 30 1 30 31
M  V30 31 2 31 32
M  V30 32 1 32 33
M  V30 33 1 33 34
M  V30 34 2 10 35
M  V30 35 1 35 6
M  V30 36 1 34 12
M  V30 37 1 28 16
M  V30 38 2 34 30
M  V30 39 1 26 20
M  V30 40 1 1 36
M  V30 41 1 1 37
M  V30 42 1 2 38
M  V30 43 1 5 39
M  V30 44 1 7 40
M  V30 45 1 8 41
M  V30 46 1 9 42
M  V30 47 1 15 43
M  V30 48 1 17 44
M  V30 49 1 18 45
M  V30 50 1 21 46
M  V30 51 1 21 47
M  V30 52 1 22 48
M  V30 53 1 22 49
M  V30 54 1 24 50
M  V30 55 1 24 51
M  V30 56 1 24 52
M  V30 57 1 25 53
M  V30 58 1 25 54
M  V30 59 1 26 55
M  V30 60 1 26 56
M  V30 61 1 27 57
M  V30 62 1 28 58
M  V30 63 1 31 59
M  V30 64 1 32 60
M  V30 65 1 35 61
M  V30 END BOND
M  V30 END CTAB
M  END
>  <Dataset>  (691) 
OralDrugs

>  <Ligand_Instance>  (691) 
nan

>  <PDB_ID>  (691) 
nan

>  <Standardized_SMILES>  (691) 
C=CC(=O)Nc1cccc(Oc2nc(Nc3ccc(N4CCN(C)CC4)cc3)nc3ccsc23)c1

>  <Name>  (691) 
Olmutinib

>  <Pocket>  (691) 
nan

>  <ATP_Site>  (691) 
nan

>  <Peripheral>  (691) 
nan

>  <Num_H_Atoms_ProtBoundConf>  (691) 
nan

>  <Num_Resolved_Atoms>  (691) 
nan

>  <Num_Not_Resolved_Atoms>  (691) 
nan

$$$$
CHEMBL4297610
     RDKit          3D

  0  0  0  0  0  0  0  0  0  0999 V3000
M  V30 BEGIN CTAB
M  V30 COUNTS 40 42 0 0 0
M  V30 BEGIN ATOM
M  V30 1 C 2.233567 -1.539192 3.168448 0
M  V30 2 C 1.438275 -1.660085 1.865403 0 CFG=2
M  V30 3 N 2.026169 -1.163140 0.701448 0
M  V30 4 C 2.611776 -0.668143 -0.457958 0
M  V30 5 C 3.830844 -0.852418 -1.059327 0
M  V30 6 C 4.179203 -0.222094 -2.223635 0
M  V30 7 C 3.212308 0.601266 -2.730212 0
M  V30 8 C 3.576908 1.269984 -3.961128 0
M  V30 9 N 3.857108 1.815846 -4.941291 0
M  V30 10 N 2.003875 0.851778 -2.233022 0
M  V30 11 C 1.105977 1.771544 -2.923088 0
M  V30 12 C 1.699055 0.204562 -1.076121 0
M  V30 13 O 0.515847 0.528821 -0.708513 0
M  V30 14 C 0.059366 -1.125844 2.135807 0
M  V30 15 C -1.072705 -1.951010 2.195525 0
M  V30 16 C -2.355527 -1.518352 2.429094 0
M  V30 17 C -3.421523 -2.380529 2.474354 0
M  V30 18 C -4.672395 -1.864988 2.713076 0
M  V30 19 Cl -6.029485 -2.947494 2.772734 0
M  V30 20 C -4.924820 -0.506156 2.913735 0
M  V30 21 C -3.817857 0.313972 2.857625 0
M  V30 22 C -2.551339 -0.169697 2.620489 0
M  V30 23 N -1.496172 0.657749 2.572381 0
M  V30 24 C -0.257151 0.196588 2.341699 0
M  V30 25 O 0.693277 1.036339 2.311404 0
M  V30 26 H 2.108417 -2.413943 3.826274 0
M  V30 27 H 3.288120 -1.365590 2.941324 0
M  V30 28 H 1.805248 -0.662037 3.730052 0
M  V30 29 H 1.239490 -2.775823 1.752209 0
M  V30 30 H 2.862831 -1.776297 0.979075 0
M  V30 31 H 4.486672 -1.530471 -0.541755 0
M  V30 32 H 5.154516 -0.440711 -2.600548 0
M  V30 33 H 0.122454 1.281431 -3.161607 0
M  V30 34 H 0.889196 2.642975 -2.265673 0
M  V30 35 H 1.520912 2.050654 -3.904688 0
M  V30 36 H -0.929093 -3.024401 2.044650 0
M  V30 37 H -3.279470 -3.441360 2.325190 0
M  V30 38 H -5.928049 -0.147252 3.098514 0
M  V30 39 H -3.930851 1.396467 3.005229 0
M  V30 40 H -1.651493 1.678607 2.718652 0
M  V30 END ATOM
M  V30 BEGIN BOND
M  V30 1 1 1 2
M  V30 2 1 2 3
M  V30 3 1 3 4
M  V30 4 2 4 5
M  V30 5 1 5 6
M  V30 6 2 6 7
M  V30 7 1 7 8
M  V30 8 3 8 9
M  V30 9 1 7 10
M  V30 10 1 10 11
M  V30 11 1 10 12
M  V30 12 2 12 13
M  V30 13 1 2 14
M  V30 14 2 14 15
M  V30 15 1 15 16
M  V30 16 2 16 17
M  V30 17 1 17 18
M  V30 18 1 18 19
M  V30 19 2 18 20
M  V30 20 1 20 21
M  V30 21 2 21 22
M  V30 22 1 22 23
M  V30 23 1 23 24
M  V30 24 2 24 25
M  V30 25 1 12 4
M  V30 26 1 24 14
M  V30 27 1 22 16
M  V30 28 1 1 26
M  V30 29 1 1 27
M  V30 30 1 1 28
M  V30 31 1 2 29 CFG=3
M  V30 32 1 3 30
M  V30 33 1 5 31
M  V30 34 1 6 32
M  V30 35 1 11 33
M  V30 36 1 11 34
M  V30 37 1 11 35
M  V30 38 1 15 36
M  V30 39 1 17 37
M  V30 40 1 20 38
M  V30 41 1 21 39
M  V30 42 1 23 40
M  V30 END BOND
M  V30 END CTAB
M  END
>  <Dataset>  (692) 
OralDrugs

>  <Ligand_Instance>  (692) 
nan

>  <PDB_ID>  (692) 
nan

>  <Standardized_SMILES>  (692) 
C[C@H](Nc1ccc(C#N)n(C)c1=O)c1cc2cc(Cl)ccc2[nH]c1=O

>  <Name>  (692) 
Olutasidenib

>  <Pocket>  (692) 
nan

>  <ATP_Site>  (692) 
nan

>  <Peripheral>  (692) 
nan

>  <Num_H_Atoms_ProtBoundConf>  (692) 
nan

>  <Num_Resolved_Atoms>  (692) 
nan

>  <Num_Not_Resolved_Atoms>  (692) 
nan

$$$$
CHEMBL1689772
     RDKit          3D

  0  0  0  0  0  0  0  0  0  0999 V3000
M  V30 BEGIN CTAB
M  V30 COUNTS 80 83 0 0 0
M  V30 BEGIN ATOM
M  V30 1 C -0.157992 -3.343939 3.188366 0
M  V30 2 N 0.543022 -2.057292 3.298638 0
M  V30 3 C 0.609394 -1.576354 4.680020 0
M  V30 4 C 1.159390 -1.211790 2.305668 0
M  V30 5 C 2.510269 -1.045725 2.577225 0
M  V30 6 C 3.310697 -0.265978 1.751477 0
M  V30 7 C 4.765661 -0.023967 1.953058 0
M  V30 8 N 5.593762 -0.780545 1.049041 0
M  V30 9 C 5.438083 -2.203356 1.141032 0
M  V30 10 C 6.354953 -2.884249 0.149404 0
M  V30 11 C 5.990437 -2.420265 -1.222133 0
M  V30 12 C 7.812581 -2.618408 0.399884 0
M  V30 13 C 6.169659 -4.404818 0.203275 0
M  V30 14 C 2.755486 0.350330 0.648224 0
M  V30 15 O 3.407341 1.144939 -0.255094 0
M  V30 16 C 1.414714 0.166804 0.405337 0
M  V30 17 C 0.579438 -0.593971 1.190991 0
M  V30 18 C -0.856419 -0.880514 1.077053 0
M  V30 19 C -1.346827 -0.710473 -0.350148 0 CFG=1
M  V30 20 C -2.810769 -0.808757 -0.473394 0
M  V30 21 C -3.534255 0.080045 -1.429333 0 CFG=1
M  V30 22 C -4.949587 0.266343 -0.923059 0 CFG=2
M  V30 23 N -5.733095 -0.817342 -1.418298 0
M  V30 24 C -5.821065 -0.959745 -2.826765 0
M  V30 25 C -5.786831 -1.995575 -0.635239 0
M  V30 26 C -5.527531 1.589190 -1.184688 0
M  V30 27 O -6.909700 1.590229 -1.184211 0
M  V30 28 C -4.853556 2.705885 -1.406182 0
M  V30 29 C -5.527967 3.989628 -1.658680 0
M  V30 30 N -6.948897 3.998237 -1.659513 0
M  V30 31 O -4.838633 5.012084 -1.860347 0
M  V30 32 C -3.413215 2.565444 -1.387343 0
M  V30 33 O -2.741588 3.558350 -0.933746 0
M  V30 34 C -2.845803 1.290001 -1.893289 0 CFG=2
M  V30 35 O -2.897001 1.422519 -3.307983 0
M  V30 36 C -1.393923 1.366057 -1.586475 0
M  V30 37 O -0.811321 2.528498 -2.130160 0
M  V30 38 C -0.729282 0.486458 -0.907207 0
M  V30 39 C 0.693597 0.755253 -0.739554 0
M  V30 40 O 1.333984 1.477778 -1.543977 0
M  V30 41 H 0.066842 -3.852202 2.230944 0
M  V30 42 H -1.216410 -3.179790 3.396944 0
M  V30 43 H 0.248286 -4.012599 4.000260 0
M  V30 44 H 1.165035 -2.274230 5.331471 0
M  V30 45 H 1.090868 -0.586958 4.760996 0
M  V30 46 H -0.409312 -1.468426 5.112597 0
M  V30 47 H 3.057047 -1.470288 3.399910 0
M  V30 48 H 5.041472 1.032474 1.855167 0
M  V30 49 H 5.042406 -0.349442 2.997609 0
M  V30 50 H 6.571587 -0.459229 1.212150 0
M  V30 51 H 4.401455 -2.450525 0.847845 0
M  V30 52 H 5.638175 -2.517668 2.172199 0
M  V30 53 H 4.885933 -2.262209 -1.247903 0
M  V30 54 H 6.263427 -3.212152 -1.952310 0
M  V30 55 H 6.528963 -1.470973 -1.501899 0
M  V30 56 H 7.971033 -1.966757 1.289150 0
M  V30 57 H 8.416212 -3.560745 0.514094 0
M  V30 58 H 8.244306 -2.076553 -0.464880 0
M  V30 59 H 6.725419 -4.853341 1.058230 0
M  V30 60 H 6.480982 -4.873958 -0.760414 0
M  V30 61 H 5.093636 -4.656961 0.316957 0
M  V30 62 H 4.012886 1.895366 0.084529 0
M  V30 63 H -1.481166 -0.261083 1.752498 0
M  V30 64 H -1.086825 -1.946248 1.339336 0
M  V30 65 H -0.841652 -1.575582 -0.885509 0
M  V30 66 H -3.070317 -1.879446 -0.625173 0
M  V30 67 H -3.214764 -0.607922 0.560312 0
M  V30 68 H -3.664409 -0.551328 -2.365696 0
M  V30 69 H -4.922101 0.137445 0.202145 0
M  V30 70 H -5.295951 -1.899740 -3.125654 0
M  V30 71 H -5.365707 -0.158804 -3.410433 0
M  V30 72 H -6.874373 -1.116997 -3.189084 0
M  V30 73 H -5.222775 -2.802359 -1.149629 0
M  V30 74 H -5.269747 -1.823061 0.336618 0
M  V30 75 H -6.810263 -2.404869 -0.488623 0
M  V30 76 H -7.513597 1.102181 -1.819134 0
M  V30 77 H -7.616474 3.508524 -2.317766 0
M  V30 78 H -7.729256 4.430312 -1.091324 0
M  V30 79 H -2.283657 2.182330 -3.524323 0
M  V30 80 H -0.293012 2.524253 -2.990269 0
M  V30 END ATOM
M  V30 BEGIN BOND
M  V30 1 1 1 2
M  V30 2 1 2 3
M  V30 3 1 2 4
M  V30 4 2 4 5
M  V30 5 1 5 6
M  V30 6 1 6 7
M  V30 7 1 7 8
M  V30 8 1 8 9
M  V30 9 1 9 10
M  V30 10 1 10 11
M  V30 11 1 10 12
M  V30 12 1 10 13
M  V30 13 2 6 14
M  V30 14 1 14 15
M  V30 15 1 14 16
M  V30 16 2 16 17
M  V30 17 1 17 18
M  V30 18 1 18 19
M  V30 19 1 19 20
M  V30 20 1 20 21
M  V30 21 1 21 22
M  V30 22 1 22 23
M  V30 23 1 23 24
M  V30 24 1 23 25
M  V30 25 1 22 26
M  V30 26 1 26 27
M  V30 27 2 26 28
M  V30 28 1 28 29
M  V30 29 1 29 30
M  V30 30 2 29 31
M  V30 31 1 28 32
M  V30 32 2 32 33
M  V30 33 1 32 34
M  V30 34 1 34 35 CFG=3
M  V30 35 1 34 36
M  V30 36 1 36 37
M  V30 37 2 36 38
M  V30 38 1 38 39
M  V30 39 2 39 40
M  V30 40 1 17 4
M  V30 41 1 38 19
M  V30 42 1 39 16
M  V30 43 1 34 21
M  V30 44 1 1 41
M  V30 45 1 1 42
M  V30 46 1 1 43
M  V30 47 1 3 44
M  V30 48 1 3 45
M  V30 49 1 3 46
M  V30 50 1 5 47
M  V30 51 1 7 48
M  V30 52 1 7 49
M  V30 53 1 8 50
M  V30 54 1 9 51
M  V30 55 1 9 52
M  V30 56 1 11 53
M  V30 57 1 11 54
M  V30 58 1 11 55
M  V30 59 1 12 56
M  V30 60 1 12 57
M  V30 61 1 12 58
M  V30 62 1 13 59
M  V30 63 1 13 60
M  V30 64 1 13 61
M  V30 65 1 15 62
M  V30 66 1 18 63
M  V30 67 1 18 64
M  V30 68 1 19 65 CFG=3
M  V30 69 1 20 66
M  V30 70 1 20 67
M  V30 71 1 21 68 CFG=3
M  V30 72 1 22 69 CFG=1
M  V30 73 1 24 70
M  V30 74 1 24 71
M  V30 75 1 24 72
M  V30 76 1 25 73
M  V30 77 1 25 74
M  V30 78 1 25 75
M  V30 79 1 27 76
M  V30 80 1 30 77
M  V30 81 1 30 78
M  V30 82 1 35 79
M  V30 83 1 37 80
M  V30 END BOND
M  V30 END CTAB
M  END
>  <Dataset>  (693) 
OralDrugs

>  <Ligand_Instance>  (693) 
nan

>  <PDB_ID>  (693) 
nan

>  <Standardized_SMILES>  (693) 
CN(C)c1cc(CNCC(C)(C)C)c(O)c2c1C[C@H]1C[C@H]3[C@H](N(C)C)C(O)=C(C(N)=O)C(=O)[C@@]3(O)C(O)=C1C2=O

>  <Name>  (693) 
Omadacycline

>  <Pocket>  (693) 
nan

>  <ATP_Site>  (693) 
nan

>  <Peripheral>  (693) 
nan

>  <Num_H_Atoms_ProtBoundConf>  (693) 
nan

>  <Num_Resolved_Atoms>  (693) 
nan

>  <Num_Not_Resolved_Atoms>  (693) 
nan

$$$$
CHEMBL2105762
     RDKit          3D

  0  0  0  0  0  0  0  0  0  0999 V3000
M  V30 BEGIN CTAB
M  V30 COUNTS 47 50 0 0 0
M  V30 BEGIN ATOM
M  V30 1 C 1.549887 -3.457516 -2.136037 0
M  V30 2 S 0.003480 -4.274103 -1.731216 0
M  V30 3 O 0.303028 -5.506775 -0.946814 0
M  V30 4 O -0.613039 -4.674010 -3.044971 0
M  V30 5 N -1.037984 -3.201826 -0.865091 0
M  V30 6 C -1.511391 -3.363528 0.383451 0
M  V30 7 C -2.301698 -2.269036 0.671018 0
M  V30 8 C -2.281245 -1.443582 -0.460815 0
M  V30 9 N -1.493214 -2.066181 -1.364762 0
M  V30 10 C -3.134078 -0.237627 -0.185121 0
M  V30 11 N -2.938201 -0.114140 1.247338 0
M  V30 12 C -1.550543 0.225172 1.479923 0 CFG=1
M  V30 13 C -1.199204 1.528546 0.817350 0
M  V30 14 O -0.258228 2.293385 1.403771 0
M  V30 15 C 0.720722 1.745701 2.158022 0 CFG=2
M  V30 16 C 2.010758 1.498241 1.466680 0
M  V30 17 C 2.110896 0.926881 0.215631 0
M  V30 18 C 3.294738 0.684349 -0.449127 0
M  V30 19 F 3.309752 0.112030 -1.692342 0
M  V30 20 C 4.481728 1.029376 0.160237 0
M  V30 21 C 4.460759 1.605208 1.411792 0
M  V30 22 C 3.247253 1.821818 2.023757 0
M  V30 23 F 3.256841 2.396527 3.269305 0
M  V30 24 C 0.284018 0.562951 2.994499 0 CFG=1
M  V30 25 N 0.653508 0.677573 4.382833 0
M  V30 26 C -1.215707 0.364958 2.928723 0
M  V30 27 C -3.188851 -1.517795 1.624538 0
M  V30 28 H 2.095841 -4.062799 -2.865377 0
M  V30 29 H 1.256025 -2.450654 -2.548468 0
M  V30 30 H 2.082103 -3.280438 -1.179321 0
M  V30 31 H -1.339237 -4.164570 1.061693 0
M  V30 32 H -2.844395 0.626683 -0.772572 0
M  V30 33 H -4.197379 -0.549593 -0.356229 0
M  V30 34 H -0.867721 -0.548608 1.034954 0
M  V30 35 H -1.036313 1.382716 -0.291737 0
M  V30 36 H -2.160981 2.125896 0.838458 0
M  V30 37 H 0.985618 2.532324 2.931388 0
M  V30 38 H 1.232796 0.636079 -0.310395 0
M  V30 39 H 5.424453 0.854590 -0.329366 0
M  V30 40 H 5.388408 1.871198 1.880240 0
M  V30 41 H 0.791685 -0.331949 2.578151 0
M  V30 42 H 1.305002 -0.053122 4.711718 0
M  V30 43 H -0.140939 0.895684 5.012047 0
M  V30 44 H -1.727638 1.242265 3.370240 0
M  V30 45 H -1.450891 -0.497527 3.563419 0
M  V30 46 H -4.208915 -1.785764 1.366733 0
M  V30 47 H -2.961426 -1.733279 2.663450 0
M  V30 END ATOM
M  V30 BEGIN BOND
M  V30 1 1 1 2
M  V30 2 2 2 3
M  V30 3 2 2 4
M  V30 4 1 2 5
M  V30 5 1 5 6
M  V30 6 2 6 7
M  V30 7 1 7 8
M  V30 8 2 8 9
M  V30 9 1 8 10
M  V30 10 1 10 11
M  V30 11 1 11 12
M  V30 12 1 12 13
M  V30 13 1 13 14
M  V30 14 1 14 15
M  V30 15 1 15 16
M  V30 16 2 16 17
M  V30 17 1 17 18
M  V30 18 1 18 19
M  V30 19 2 18 20
M  V30 20 1 20 21
M  V30 21 2 21 22
M  V30 22 1 22 23
M  V30 23 1 15 24
M  V30 24 1 24 25
M  V30 25 1 24 26
M  V30 26 1 11 27
M  V30 27 1 9 5
M  V30 28 1 26 12
M  V30 29 1 27 7
M  V30 30 1 22 16
M  V30 31 1 1 28
M  V30 32 1 1 29
M  V30 33 1 1 30
M  V30 34 1 6 31
M  V30 35 1 10 32
M  V30 36 1 10 33
M  V30 37 1 12 34 CFG=3
M  V30 38 1 13 35
M  V30 39 1 13 36
M  V30 40 1 15 37 CFG=1
M  V30 41 1 17 38
M  V30 42 1 20 39
M  V30 43 1 21 40
M  V30 44 1 24 41 CFG=3
M  V30 45 1 25 42
M  V30 46 1 25 43
M  V30 47 1 26 44
M  V30 48 1 26 45
M  V30 49 1 27 46
M  V30 50 1 27 47
M  V30 END BOND
M  V30 END CTAB
M  END
>  <Dataset>  (694) 
OralDrugs

>  <Ligand_Instance>  (694) 
nan

>  <PDB_ID>  (694) 
nan

>  <Standardized_SMILES>  (694) 
CS(=O)(=O)n1cc2c(n1)CN([C@H]1CO[C@H](c3cc(F)ccc3F)[C@@H](N)C1)C2

>  <Name>  (694) 
Omarigliptin

>  <Pocket>  (694) 
nan

>  <ATP_Site>  (694) 
nan

>  <Peripheral>  (694) 
nan

>  <Num_H_Atoms_ProtBoundConf>  (694) 
nan

>  <Num_Resolved_Atoms>  (694) 
nan

>  <Num_Not_Resolved_Atoms>  (694) 
nan

$$$$
CHEMBL4303525
     RDKit          3D

  0  0  0  0  0  0  0  0  0  0999 V3000
M  V30 BEGIN CTAB
M  V30 COUNTS 84 88 0 0 0
M  V30 BEGIN ATOM
M  V30 1 C 2.418492 -5.246238 1.962823 0
M  V30 2 C 2.651300 -4.307614 0.763872 0
M  V30 3 C 2.913657 -5.241364 -0.393611 0
M  V30 4 C 3.821007 -3.468906 1.135313 0
M  V30 5 C 3.325541 -2.070940 1.377472 0
M  V30 6 C 2.791554 -1.549936 0.057575 0 CFG=2
M  V30 7 N 3.789222 -1.905190 -0.940496 0
M  V30 8 C 5.148058 -1.499374 -0.982780 0
M  V30 9 O 5.546661 -0.758388 -0.075295 0
M  V30 10 C 6.053447 -1.947605 -2.073839 0
M  V30 11 C 5.433874 -1.436171 -3.377343 0
M  V30 12 F 7.261386 -1.292423 -1.950664 0
M  V30 13 F 6.161254 -3.307218 -2.129605 0
M  V30 14 C 2.747071 -0.070687 0.149780 0
M  V30 15 C 1.549463 0.567367 0.706771 0
M  V30 16 C 0.271252 -0.189325 0.652648 0 CFG=2
M  V30 17 C -0.177037 -0.452123 2.098538 0
M  V30 18 C 0.296770 -1.421312 -0.185100 0 CFG=2
M  V30 19 C -0.950533 -2.145594 0.263898 0
M  V30 20 O -1.219736 -3.306606 0.739191 0
M  V30 21 C -2.181244 -1.322660 0.128303 0
M  V30 22 C -2.157121 0.025932 0.060109 0
M  V30 23 C -3.426464 0.753468 -0.071849 0 CFG=1
M  V30 24 C -3.938216 0.780952 -1.492329 0
M  V30 25 C -4.478244 -0.009275 0.704564 0
M  V30 26 C -5.594076 0.701603 0.956501 0
M  V30 27 C -6.744362 0.184033 1.685920 0
M  V30 28 N -7.657344 -0.249038 2.268128 0
M  V30 29 C -5.779791 2.102433 0.520539 0
M  V30 30 O -6.907857 2.624540 0.323367 0
M  V30 31 C -4.564361 2.957213 0.298053 0
M  V30 32 C -4.608216 4.000909 1.410320 0
M  V30 33 C -4.589836 3.677210 -0.993548 0
M  V30 34 C -3.357978 2.098557 0.570556 0 CFG=2
M  V30 35 C -2.066291 2.825418 0.434330 0
M  V30 36 C -0.961738 1.939918 0.943794 0
M  V30 37 C -0.821894 0.715714 0.108219 0 CFG=1
M  V30 38 C -0.458559 1.014555 -1.328507 0
M  V30 39 C 1.506421 -2.267643 -0.201107 0 CFG=2
M  V30 40 C 1.355282 -3.556607 0.586360 0
M  V30 41 H 2.785794 -4.764147 2.906821 0
M  V30 42 H 2.919552 -6.210818 1.840691 0
M  V30 43 H 1.333704 -5.452058 2.101071 0
M  V30 44 H 3.574426 -4.854315 -1.166681 0
M  V30 45 H 1.895435 -5.429596 -0.845728 0
M  V30 46 H 3.243329 -6.244942 -0.056397 0
M  V30 47 H 4.318011 -3.771630 2.105554 0
M  V30 48 H 4.628037 -3.451833 0.399256 0
M  V30 49 H 2.562945 -2.019539 2.180012 0
M  V30 50 H 4.168285 -1.417045 1.675369 0
M  V30 51 H 3.491060 -2.538923 -1.742382 0
M  V30 52 H 6.088405 -1.592454 -4.246241 0
M  V30 53 H 5.189433 -0.362089 -3.278982 0
M  V30 54 H 4.469363 -1.962311 -3.581100 0
M  V30 55 H 3.032448 0.341097 -0.865528 0
M  V30 56 H 3.629626 0.258975 0.760823 0
M  V30 57 H 1.740499 0.955638 1.749176 0
M  V30 58 H 1.434968 1.544734 0.146468 0
M  V30 59 H 0.191300 0.434538 2.696899 0
M  V30 60 H 0.295952 -1.308125 2.560787 0
M  V30 61 H -1.249116 -0.470423 2.237278 0
M  V30 62 H 0.068054 -1.086239 -1.227426 0
M  V30 63 H -3.164643 -1.821461 0.073983 0
M  V30 64 H -5.042223 0.848724 -1.451155 0
M  V30 65 H -3.531904 1.571862 -2.119296 0
M  V30 66 H -3.744120 -0.245268 -1.897599 0
M  V30 67 H -4.614163 -0.990400 1.140293 0
M  V30 68 H -5.614745 4.496572 1.321308 0
M  V30 69 H -4.502571 3.515749 2.390515 0
M  V30 70 H -3.881045 4.828726 1.229146 0
M  V30 71 H -5.059945 4.698559 -0.868843 0
M  V30 72 H -3.628706 3.875093 -1.457550 0
M  V30 73 H -5.247108 3.216232 -1.783253 0
M  V30 74 H -3.439580 1.900175 1.686024 0
M  V30 75 H -1.827139 3.256496 -0.526647 0
M  V30 76 H -2.116092 3.680581 1.175863 0
M  V30 77 H -1.283776 1.626093 1.957600 0
M  V30 78 H -0.068050 2.544831 1.046007 0
M  V30 79 H 0.612356 0.827697 -1.567659 0
M  V30 80 H -0.625777 2.067843 -1.627950 0
M  V30 81 H -1.025471 0.406759 -2.064316 0
M  V30 82 H 1.590710 -2.681953 -1.257973 0
M  V30 83 H 0.725118 -4.289565 -0.002330 0
M  V30 84 H 0.942822 -3.392588 1.593555 0
M  V30 END ATOM
M  V30 BEGIN BOND
M  V30 1 1 1 2
M  V30 2 1 2 3
M  V30 3 1 2 4
M  V30 4 1 4 5
M  V30 5 1 5 6
M  V30 6 1 6 7 CFG=3
M  V30 7 1 7 8
M  V30 8 2 8 9
M  V30 9 1 8 10
M  V30 10 1 10 11
M  V30 11 1 10 12
M  V30 12 1 10 13
M  V30 13 1 6 14
M  V30 14 1 14 15
M  V30 15 1 15 16
M  V30 16 1 16 17 CFG=1
M  V30 17 1 16 18
M  V30 18 1 18 19
M  V30 19 2 19 20
M  V30 20 1 19 21
M  V30 21 2 21 22
M  V30 22 1 22 23
M  V30 23 1 23 24 CFG=3
M  V30 24 1 23 25
M  V30 25 2 25 26
M  V30 26 1 26 27
M  V30 27 3 27 28
M  V30 28 1 26 29
M  V30 29 2 29 30
M  V30 30 1 29 31
M  V30 31 1 31 32
M  V30 32 1 31 33
M  V30 33 1 31 34
M  V30 34 1 34 35
M  V30 35 1 35 36
M  V30 36 1 36 37
M  V30 37 1 37 38 CFG=3
M  V30 38 1 18 39
M  V30 39 1 39 40
M  V30 40 1 40 2
M  V30 41 1 39 6
M  V30 42 1 37 16
M  V30 43 1 37 22
M  V30 44 1 34 23
M  V30 45 1 1 41
M  V30 46 1 1 42
M  V30 47 1 1 43
M  V30 48 1 3 44
M  V30 49 1 3 45
M  V30 50 1 3 46
M  V30 51 1 4 47
M  V30 52 1 4 48
M  V30 53 1 5 49
M  V30 54 1 5 50
M  V30 55 1 7 51
M  V30 56 1 11 52
M  V30 57 1 11 53
M  V30 58 1 11 54
M  V30 59 1 14 55
M  V30 60 1 14 56
M  V30 61 1 15 57
M  V30 62 1 15 58
M  V30 63 1 17 59
M  V30 64 1 17 60
M  V30 65 1 17 61
M  V30 66 1 18 62 CFG=3
M  V30 67 1 21 63
M  V30 68 1 24 64
M  V30 69 1 24 65
M  V30 70 1 24 66
M  V30 71 1 25 67
M  V30 72 1 32 68
M  V30 73 1 32 69
M  V30 74 1 32 70
M  V30 75 1 33 71
M  V30 76 1 33 72
M  V30 77 1 33 73
M  V30 78 1 34 74 CFG=1
M  V30 79 1 35 75
M  V30 80 1 35 76
M  V30 81 1 36 77
M  V30 82 1 36 78
M  V30 83 1 38 79
M  V30 84 1 38 80
M  V30 85 1 38 81
M  V30 86 1 39 82 CFG=3
M  V30 87 1 40 83
M  V30 88 1 40 84
M  V30 END BOND
M  V30 END CTAB
M  END
>  <Dataset>  (695) 
OralDrugs

>  <Ligand_Instance>  (695) 
nan

>  <PDB_ID>  (695) 
nan

>  <Standardized_SMILES>  (695) 
CC1(C)CC[C@]2(NC(=O)C(C)(F)F)CC[C@]3(C)[C@H](C(=O)C=C4[C@@]5(C)C=C(C#N)C(=O)C(C)(C)[C@@H]5CC[C@]43C)[C@@H]2C1

>  <Name>  (695) 
Omaveloxolone

>  <Pocket>  (695) 
nan

>  <ATP_Site>  (695) 
nan

>  <Peripheral>  (695) 
nan

>  <Num_H_Atoms_ProtBoundConf>  (695) 
nan

>  <Num_Resolved_Atoms>  (695) 
nan

>  <Num_Not_Resolved_Atoms>  (695) 
nan

$$$$
CHEMBL3127326
     RDKit          3D

  0  0  0  0  0  0  0  0  0  0999 V3000
M  V30 BEGIN CTAB
M  V30 COUNTS 132 137 0 0 0
M  V30 BEGIN ATOM
M  V30 1 C -0.538912 -4.033430 8.693639 0
M  V30 2 O -1.696065 -3.214651 8.652058 0
M  V30 3 C -2.676627 -3.408990 7.662875 0
M  V30 4 O -2.050258 -4.368770 7.127796 0
M  V30 5 N -3.895346 -2.710681 7.446488 0
M  V30 6 C -4.754628 -3.127423 6.315290 0 CFG=2
M  V30 7 C -4.801629 -2.096866 5.277924 0
M  V30 8 O -5.518081 -2.579960 4.332009 0
M  V30 9 N -4.200475 -0.785441 5.237572 0
M  V30 10 C -3.374036 -0.093656 6.240500 0
M  V30 11 C -3.052056 1.204297 5.522471 0
M  V30 12 C -4.214213 1.437614 4.575208 0
M  V30 13 C -4.399692 0.018482 4.040483 0 CFG=1
M  V30 14 C -3.258077 -0.148136 3.090337 0
M  V30 15 O -3.287750 0.552534 2.046062 0
M  V30 16 N -2.240969 -1.071902 3.433311 0
M  V30 17 C -1.063217 -1.404607 2.707488 0
M  V30 18 C -0.838238 -2.350626 1.717684 0
M  V30 19 C 0.421828 -2.471299 1.168811 0
M  V30 20 C 1.483054 -1.662481 1.585084 0
M  V30 21 C 2.788206 -1.874456 0.893572 0 CFG=2
M  V30 22 C 3.730594 -0.698752 1.046696 0
M  V30 23 C 3.110461 0.347406 0.109916 0
M  V30 24 C 2.057812 -0.476633 -0.611997 0 CFG=1
M  V30 25 C 1.767682 0.103035 -1.945413 0
M  V30 26 C 0.434691 0.459177 -2.181140 0
M  V30 27 C 0.121653 1.043785 -3.394930 0
M  V30 28 C 1.168849 1.231299 -4.289130 0
M  V30 29 N 0.660723 1.849869 -5.483991 0
M  V30 30 C 0.654015 3.230263 -5.278929 0
M  V30 31 O 1.032588 3.851564 -4.214917 0
M  V30 32 C 0.409548 4.580997 -5.680464 0 CFG=2
M  V30 33 C 1.377649 4.919531 -6.813110 0
M  V30 34 C 1.097014 6.399973 -6.926737 0
M  V30 35 C 1.049119 6.800149 -5.473755 0
M  V30 36 N 0.631133 5.615723 -4.743596 0
M  V30 37 C 0.604553 5.942034 -3.387908 0
M  V30 38 O 0.920965 7.111686 -3.046356 0
M  V30 39 C 0.398094 5.673391 -1.991439 0 CFG=1
M  V30 40 N 0.698144 6.875019 -1.187004 0
M  V30 41 C 1.750218 6.733066 -0.255682 0
M  V30 42 O 2.476622 5.724917 -0.008627 0
M  V30 43 O 2.178890 7.754344 0.594560 0
M  V30 44 C 3.261566 7.514541 1.509355 0
M  V30 45 C -0.949000 5.233438 -1.540660 0
M  V30 46 C -1.460755 3.967331 -2.138718 0
M  V30 47 C -1.987569 6.355280 -1.570446 0
M  V30 48 C 2.488115 0.890774 -4.084988 0
M  V30 49 C 2.781913 0.309230 -2.870774 0
M  V30 50 N 2.589263 -1.795288 -0.576234 0
M  V30 51 C 2.900435 -2.888848 -1.467193 0
M  V30 52 C 3.775730 -3.885869 -1.109621 0
M  V30 53 C 4.026732 -4.918660 -2.013571 0
M  V30 54 C 3.433317 -4.983613 -3.255554 0
M  V30 55 C 3.806833 -6.151919 -4.096435 0
M  V30 56 C 3.167623 -6.103133 -5.461094 0
M  V30 57 C 3.352812 -7.450591 -3.435864 0
M  V30 58 C 5.306050 -6.265983 -4.242665 0
M  V30 59 C 2.554298 -3.990827 -3.626044 0
M  V30 60 C 2.306600 -2.960373 -2.716424 0
M  V30 61 C 1.262121 -0.720553 2.570122 0
M  V30 62 C -0.014128 -0.589594 3.133957 0
M  V30 63 C -6.083412 -3.605144 6.812423 0
M  V30 64 C -6.985678 -4.045122 5.686026 0
M  V30 65 C -6.829583 -2.575926 7.616480 0
M  V30 66 H 0.070100 -3.673702 9.547019 0
M  V30 67 H -0.730002 -5.091230 8.867269 0
M  V30 68 H 0.064554 -3.855242 7.774377 0
M  V30 69 H -3.945240 -1.984348 8.192468 0
M  V30 70 H -4.222675 -3.998868 5.883862 0
M  V30 71 H -3.934709 0.147218 7.158955 0
M  V30 72 H -2.510241 -0.709509 6.477937 0
M  V30 73 H -3.053402 2.040390 6.233344 0
M  V30 74 H -2.092210 1.177482 4.983415 0
M  V30 75 H -5.108363 1.820954 5.063809 0
M  V30 76 H -3.938432 2.130249 3.756801 0
M  V30 77 H -5.382021 -0.070208 3.587497 0
M  V30 78 H -2.211603 -1.657217 4.296115 0
M  V30 79 H -1.728388 -2.899779 1.495799 0
M  V30 80 H 0.522903 -3.225434 0.408400 0
M  V30 81 H 3.279377 -2.822401 1.150223 0
M  V30 82 H 4.721935 -1.058839 0.664220 0
M  V30 83 H 3.899941 -0.353475 2.054027 0
M  V30 84 H 2.688244 1.206177 0.654659 0
M  V30 85 H 3.915569 0.699739 -0.530770 0
M  V30 86 H 1.159051 -0.450310 0.026860 0
M  V30 87 H -0.322669 0.276264 -1.420142 0
M  V30 88 H -0.900756 1.296371 -3.528625 0
M  V30 89 H 0.282881 1.825025 -6.449111 0
M  V30 90 H -0.606499 4.678202 -6.108907 0
M  V30 91 H 2.422898 4.694659 -6.561079 0
M  V30 92 H 1.013941 4.370949 -7.691015 0
M  V30 93 H 1.839881 6.945994 -7.515494 0
M  V30 94 H 0.094188 6.511584 -7.383924 0
M  V30 95 H 0.337668 7.639817 -5.413410 0
M  V30 96 H 2.059781 7.143990 -5.206303 0
M  V30 97 H 1.111246 4.856071 -1.676872 0
M  V30 98 H 0.193869 7.778857 -1.268932 0
M  V30 99 H 3.084667 6.519897 2.015214 0
M  V30 100 H 4.188576 7.437363 0.933712 0
M  V30 101 H 3.263560 8.284757 2.284107 0
M  V30 102 H -0.834903 5.026187 -0.432670 0
M  V30 103 H -1.519145 3.929448 -3.223967 0
M  V30 104 H -0.871123 3.136803 -1.666746 0
M  V30 105 H -2.512986 3.764489 -1.780841 0
M  V30 106 H -2.987870 5.851340 -1.538138 0
M  V30 107 H -1.932517 6.889126 -2.540143 0
M  V30 108 H -1.866977 7.068433 -0.750629 0
M  V30 109 H 3.197416 1.097800 -4.875414 0
M  V30 110 H 3.803734 0.027040 -2.671628 0
M  V30 111 H 4.279552 -3.914371 -0.178666 0
M  V30 112 H 4.732284 -5.699337 -1.694134 0
M  V30 113 H 3.258990 -7.098898 -5.950808 0
M  V30 114 H 2.089315 -5.887003 -5.433304 0
M  V30 115 H 3.724804 -5.386640 -6.127824 0
M  V30 116 H 3.115678 -7.196361 -2.369942 0
M  V30 117 H 4.097276 -8.246070 -3.509003 0
M  V30 118 H 2.424365 -7.805147 -3.925624 0
M  V30 119 H 5.763588 -6.530032 -3.243733 0
M  V30 120 H 5.708938 -5.277718 -4.528827 0
M  V30 121 H 5.591340 -7.016393 -4.980196 0
M  V30 122 H 2.093778 -4.040930 -4.593267 0
M  V30 123 H 1.599866 -2.243740 -3.090607 0
M  V30 124 H 2.090991 -0.099883 2.883326 0
M  V30 125 H -0.048358 0.182275 3.891825 0
M  V30 126 H -5.979731 -4.517494 7.462360 0
M  V30 127 H -7.808193 -4.683361 6.144708 0
M  V30 128 H -7.517776 -3.161977 5.312450 0
M  V30 129 H -6.478529 -4.600676 4.881394 0
M  V30 130 H -6.222588 -1.686400 7.863113 0
M  V30 131 H -7.739358 -2.213691 7.094616 0
M  V30 132 H -7.197639 -2.993706 8.575916 0
M  V30 END ATOM
M  V30 BEGIN BOND
M  V30 1 1 1 2
M  V30 2 1 2 3
M  V30 3 2 3 4
M  V30 4 1 3 5
M  V30 5 1 5 6
M  V30 6 1 6 7
M  V30 7 2 7 8
M  V30 8 1 7 9
M  V30 9 1 9 10
M  V30 10 1 10 11
M  V30 11 1 11 12
M  V30 12 1 12 13
M  V30 13 1 13 14
M  V30 14 2 14 15
M  V30 15 1 14 16
M  V30 16 1 16 17
M  V30 17 2 17 18
M  V30 18 1 18 19
M  V30 19 2 19 20
M  V30 20 1 20 21
M  V30 21 1 21 22
M  V30 22 1 22 23
M  V30 23 1 23 24
M  V30 24 1 24 25
M  V30 25 2 25 26
M  V30 26 1 26 27
M  V30 27 2 27 28
M  V30 28 1 28 29
M  V30 29 1 29 30
M  V30 30 2 30 31
M  V30 31 1 30 32
M  V30 32 1 32 33
M  V30 33 1 33 34
M  V30 34 1 34 35
M  V30 35 1 35 36
M  V30 36 1 36 37
M  V30 37 2 37 38
M  V30 38 1 37 39
M  V30 39 1 39 40
M  V30 40 1 40 41
M  V30 41 2 41 42
M  V30 42 1 41 43
M  V30 43 1 43 44
M  V30 44 1 39 45
M  V30 45 1 45 46
M  V30 46 1 45 47
M  V30 47 1 28 48
M  V30 48 2 48 49
M  V30 49 1 24 50
M  V30 50 1 50 51
M  V30 51 2 51 52
M  V30 52 1 52 53
M  V30 53 2 53 54
M  V30 54 1 54 55
M  V30 55 1 55 56
M  V30 56 1 55 57
M  V30 57 1 55 58
M  V30 58 1 54 59
M  V30 59 2 59 60
M  V30 60 1 20 61
M  V30 61 2 61 62
M  V30 62 1 6 63
M  V30 63 1 63 64
M  V30 64 1 63 65
M  V30 65 1 13 9
M  V30 66 1 62 17
M  V30 67 1 50 21
M  V30 68 1 60 51
M  V30 69 1 49 25
M  V30 70 1 36 32
M  V30 71 1 1 66
M  V30 72 1 1 67
M  V30 73 1 1 68
M  V30 74 1 5 69
M  V30 75 1 6 70 CFG=3
M  V30 76 1 10 71
M  V30 77 1 10 72
M  V30 78 1 11 73
M  V30 79 1 11 74
M  V30 80 1 12 75
M  V30 81 1 12 76
M  V30 82 1 13 77 CFG=3
M  V30 83 1 16 78
M  V30 84 1 18 79
M  V30 85 1 19 80
M  V30 86 1 21 81 CFG=3
M  V30 87 1 22 82
M  V30 88 1 22 83
M  V30 89 1 23 84
M  V30 90 1 23 85
M  V30 91 1 24 86 CFG=1
M  V30 92 1 26 87
M  V30 93 1 27 88
M  V30 94 1 29 89
M  V30 95 1 32 90 CFG=3
M  V30 96 1 33 91
M  V30 97 1 33 92
M  V30 98 1 34 93
M  V30 99 1 34 94
M  V30 100 1 35 95
M  V30 101 1 35 96
M  V30 102 1 39 97 CFG=1
M  V30 103 1 40 98
M  V30 104 1 44 99
M  V30 105 1 44 100
M  V30 106 1 44 101
M  V30 107 1 45 102
M  V30 108 1 46 103
M  V30 109 1 46 104
M  V30 110 1 46 105
M  V30 111 1 47 106
M  V30 112 1 47 107
M  V30 113 1 47 108
M  V30 114 1 48 109
M  V30 115 1 49 110
M  V30 116 1 52 111
M  V30 117 1 53 112
M  V30 118 1 56 113
M  V30 119 1 56 114
M  V30 120 1 56 115
M  V30 121 1 57 116
M  V30 122 1 57 117
M  V30 123 1 57 118
M  V30 124 1 58 119
M  V30 125 1 58 120
M  V30 126 1 58 121
M  V30 127 1 59 122
M  V30 128 1 60 123
M  V30 129 1 61 124
M  V30 130 1 62 125
M  V30 131 1 63 126
M  V30 132 1 64 127
M  V30 133 1 64 128
M  V30 134 1 64 129
M  V30 135 1 65 130
M  V30 136 1 65 131
M  V30 137 1 65 132
M  V30 END BOND
M  V30 END CTAB
M  END
>  <Dataset>  (696) 
OralDrugs

>  <Ligand_Instance>  (696) 
nan

>  <PDB_ID>  (696) 
nan

>  <Standardized_SMILES>  (696) 
COC(=O)N[C@H](C(=O)N1CCC[C@H]1C(=O)Nc1ccc([C@@H]2CC[C@@H](c3ccc(NC(=O)[C@@H]4CCCN4C(=O)[C@@H](NC(=O)OC)C(C)C)cc3)N2c2ccc(C(C)(C)C)cc2)cc1)C(C)C

>  <Name>  (696) 
Ombitasvir

>  <Pocket>  (696) 
nan

>  <ATP_Site>  (696) 
nan

>  <Peripheral>  (696) 
nan

>  <Num_H_Atoms_ProtBoundConf>  (696) 
nan

>  <Num_Resolved_Atoms>  (696) 
nan

>  <Num_Not_Resolved_Atoms>  (696) 
nan

$$$$
CHEMBL1200711
     RDKit          3D

  0  0  0  0  0  0  0  0  0  0999 V3000
M  V30 BEGIN CTAB
M  V30 COUNTS 62 61 0 0 0
M  V30 BEGIN ATOM
M  V30 1 C 4.548642 -5.396125 2.296542 0
M  V30 2 C 3.393090 -4.415759 2.280904 0
M  V30 3 C 2.754910 -4.425874 0.942924 0
M  V30 4 C 2.720080 -3.326371 0.257619 0
M  V30 5 C 3.062497 -1.907156 0.185268 0
M  V30 6 C 3.784032 -1.322846 1.322731 0
M  V30 7 C 3.321644 -0.321158 2.098050 0
M  V30 8 C 2.078735 0.500956 2.137545 0
M  V30 9 C 2.454809 1.918488 1.962094 0
M  V30 10 C 2.138487 2.826733 1.059029 0
M  V30 11 C 1.263883 2.664795 -0.100750 0
M  V30 12 C 0.119082 3.615685 -0.003046 0
M  V30 13 C -1.196740 3.326128 0.046454 0
M  V30 14 C -1.812711 1.968350 0.014028 0
M  V30 15 C -2.704804 1.940464 -1.202978 0
M  V30 16 C -2.659002 1.146053 -2.267362 0
M  V30 17 C -1.698167 0.046384 -2.556219 0
M  V30 18 C -2.436211 -1.233970 -2.703782 0
M  V30 19 C -2.413846 -2.407836 -2.075183 0
M  V30 20 C -1.524753 -2.727908 -0.938662 0
M  V30 21 C -2.325375 -3.095203 0.293735 0
M  V30 22 C -3.222028 -2.040403 0.762669 0
M  V30 23 O -3.839429 -2.462582 1.787770 0
M  V30 24 O -3.872785 -0.845866 0.840759 0
M  V30 25 C -4.832535 -0.568220 1.863568 0
M  V30 26 C -5.325765 0.821700 1.624120 0
M  V30 27 H 5.227506 -5.244358 1.435355 0
M  V30 28 H 5.072765 -5.394805 3.262166 0
M  V30 29 H 4.082222 -6.418581 2.199543 0
M  V30 30 H 2.654839 -4.807161 3.053172 0
M  V30 31 H 3.766350 -3.431622 2.581516 0
M  V30 32 H 2.368950 -5.395457 0.670094 0
M  V30 33 H 2.196476 -3.548318 -0.700436 0
M  V30 34 H 2.124011 -1.288653 0.070946 0
M  V30 35 H 3.627931 -1.699069 -0.783639 0
M  V30 36 H 4.797861 -1.640794 1.631450 0
M  V30 37 H 3.925533 0.068003 2.940212 0
M  V30 38 H 1.560007 0.309784 3.102492 0
M  V30 39 H 1.414879 0.112587 1.349337 0
M  V30 40 H 3.135327 2.201710 2.785681 0
M  V30 41 H 2.569265 3.818529 1.173874 0
M  V30 42 H 1.851227 2.973268 -0.993686 0
M  V30 43 H 0.946672 1.635722 -0.310702 0
M  V30 44 H 0.405529 4.665779 0.030855 0
M  V30 45 H -1.889647 4.157993 0.117254 0
M  V30 46 H -1.066766 1.186552 -0.126728 0
M  V30 47 H -2.417541 1.860138 0.929564 0
M  V30 48 H -3.455037 2.698079 -1.119783 0
M  V30 49 H -3.406616 1.306049 -3.027867 0
M  V30 50 H -1.177834 0.318387 -3.498276 0
M  V30 51 H -1.006956 -0.093040 -1.712183 0
M  V30 52 H -3.126783 -1.084667 -3.534865 0
M  V30 53 H -3.095854 -3.160077 -2.433714 0
M  V30 54 H -0.851178 -3.577918 -1.163204 0
M  V30 55 H -0.855337 -1.857110 -0.702144 0
M  V30 56 H -2.942751 -3.981810 0.012490 0
M  V30 57 H -1.623453 -3.431668 1.098741 0
M  V30 58 H -4.273615 -0.611102 2.824010 0
M  V30 59 H -5.661976 -1.305137 1.869644 0
M  V30 60 H -6.406159 0.778842 1.355674 0
M  V30 61 H -4.753437 1.323927 0.830155 0
M  V30 62 H -5.293333 1.455297 2.538882 0
M  V30 END ATOM
M  V30 BEGIN BOND
M  V30 1 1 1 2
M  V30 2 1 2 3
M  V30 3 2 3 4
M  V30 4 1 4 5
M  V30 5 1 5 6
M  V30 6 2 6 7
M  V30 7 1 7 8
M  V30 8 1 8 9
M  V30 9 2 9 10
M  V30 10 1 10 11
M  V30 11 1 11 12
M  V30 12 2 12 13
M  V30 13 1 13 14
M  V30 14 1 14 15
M  V30 15 2 15 16
M  V30 16 1 16 17
M  V30 17 1 17 18
M  V30 18 2 18 19
M  V30 19 1 19 20
M  V30 20 1 20 21
M  V30 21 1 21 22
M  V30 22 2 22 23
M  V30 23 1 22 24
M  V30 24 1 24 25
M  V30 25 1 25 26
M  V30 26 1 1 27
M  V30 27 1 1 28
M  V30 28 1 1 29
M  V30 29 1 2 30
M  V30 30 1 2 31
M  V30 31 1 3 32
M  V30 32 1 4 33
M  V30 33 1 5 34
M  V30 34 1 5 35
M  V30 35 1 6 36
M  V30 36 1 7 37
M  V30 37 1 8 38
M  V30 38 1 8 39
M  V30 39 1 9 40
M  V30 40 1 10 41
M  V30 41 1 11 42
M  V30 42 1 11 43
M  V30 43 1 12 44
M  V30 44 1 13 45
M  V30 45 1 14 46
M  V30 46 1 14 47
M  V30 47 1 15 48
M  V30 48 1 16 49
M  V30 49 1 17 50
M  V30 50 1 17 51
M  V30 51 1 18 52
M  V30 52 1 19 53
M  V30 53 1 20 54
M  V30 54 1 20 55
M  V30 55 1 21 56
M  V30 56 1 21 57
M  V30 57 1 25 58
M  V30 58 1 25 59
M  V30 59 1 26 60
M  V30 60 1 26 61
M  V30 61 1 26 62
M  V30 END BOND
M  V30 END CTAB
M  END
>  <Dataset>  (697) 
OralDrugs

>  <Ligand_Instance>  (697) 
nan

>  <PDB_ID>  (697) 
nan

>  <Standardized_SMILES>  (697) 
CC/C=C\C/C=C\C/C=C\C/C=C\C/C=C\C/C=C\CCC(=O)OCC

>  <Name>  (697) 
Omega-3-Acid Ethyl Esters

>  <Pocket>  (697) 
nan

>  <ATP_Site>  (697) 
nan

>  <Peripheral>  (697) 
nan

>  <Num_H_Atoms_ProtBoundConf>  (697) 
nan

>  <Num_Resolved_Atoms>  (697) 
nan

>  <Num_Not_Resolved_Atoms>  (697) 
nan

$$$$
CHEMBL3137327
     RDKit          3D

  0  0  0  0  0  0  0  0  0  0999 V3000
M  V30 BEGIN CTAB
M  V30 COUNTS 58 57 0 0 0
M  V30 BEGIN ATOM
M  V30 1 C 2.619611 -5.068533 6.630350 0
M  V30 2 C 2.653007 -3.727094 5.918046 0
M  V30 3 C 2.240760 -3.936973 4.499138 0
M  V30 4 C 1.240668 -3.463126 3.735431 0
M  V30 5 C 0.248442 -2.518597 4.270797 0
M  V30 6 C 0.103720 -1.204230 3.720604 0
M  V30 7 C 0.514925 -0.319974 2.855683 0
M  V30 8 C 1.647092 -0.805575 2.016350 0
M  V30 9 C 2.759302 0.170619 2.301670 0
M  V30 10 C 3.250157 0.844672 1.296830 0
M  V30 11 C 2.869011 0.791055 -0.112972 0
M  V30 12 C 2.391012 2.132799 -0.606284 0
M  V30 13 C 1.169768 2.192517 -1.063434 0
M  V30 14 C 0.115990 1.165134 -1.201408 0
M  V30 15 C -1.069141 1.542795 -0.402717 0
M  V30 16 C -2.339374 1.799812 -0.599431 0
M  V30 17 C -2.766897 1.698662 -2.005586 0
M  V30 18 C -3.841351 0.619799 -2.052757 0
M  V30 19 C -4.378957 0.412362 -3.437084 0
M  V30 20 C -3.321730 -0.017290 -4.415010 0
M  V30 21 C -2.669397 -1.321044 -3.994906 0
M  V30 22 C -1.629969 -1.716730 -4.982729 0
M  V30 23 O -1.359383 -1.042072 -6.006319 0
M  V30 24 O -0.934255 -2.892920 -4.745713 0
M  V30 25 H 1.599707 -5.250097 7.061683 0
M  V30 26 H 2.841465 -5.914532 5.965934 0
M  V30 27 H 3.293222 -4.977062 7.500422 0
M  V30 28 H 3.635215 -3.242994 5.922667 0
M  V30 29 H 1.948968 -3.072869 6.482935 0
M  V30 30 H 2.998086 -4.649981 4.118850 0
M  V30 31 H 1.292107 -3.904756 2.738036 0
M  V30 32 H 0.331286 -2.519208 5.401168 0
M  V30 33 H -0.754456 -3.055277 4.116751 0
M  V30 34 H -0.730411 -0.716643 4.283105 0
M  V30 35 H 0.164149 0.681670 2.667037 0
M  V30 36 H 1.407391 -0.744479 0.948968 0
M  V30 37 H 1.981463 -1.824871 2.214957 0
M  V30 38 H 3.111609 0.280129 3.320518 0
M  V30 39 H 4.048301 1.537520 1.542483 0
M  V30 40 H 3.848089 0.667688 -0.724835 0
M  V30 41 H 2.257344 0.001251 -0.481364 0
M  V30 42 H 3.033837 2.991874 -0.578005 0
M  V30 43 H 0.844637 3.183692 -1.416870 0
M  V30 44 H 0.423549 0.133272 -1.030704 0
M  V30 45 H -0.185434 1.197161 -2.291946 0
M  V30 46 H -0.672711 1.597084 0.618344 0
M  V30 47 H -2.992672 2.060039 0.210877 0
M  V30 48 H -1.994584 1.593907 -2.748418 0
M  V30 49 H -3.308872 2.661255 -2.262476 0
M  V30 50 H -3.450631 -0.285147 -1.589692 0
M  V30 51 H -4.686754 0.977301 -1.432886 0
M  V30 52 H -5.205179 -0.328997 -3.456772 0
M  V30 53 H -4.833434 1.349224 -3.845889 0
M  V30 54 H -3.845466 -0.154481 -5.403576 0
M  V30 55 H -2.548483 0.750063 -4.472599 0
M  V30 56 H -3.421496 -2.139086 -3.912554 0
M  V30 57 H -2.166828 -1.177316 -3.033449 0
M  V30 58 H -0.031423 -3.079254 -5.163978 0
M  V30 END ATOM
M  V30 BEGIN BOND
M  V30 1 1 1 2
M  V30 2 1 2 3
M  V30 3 2 3 4
M  V30 4 1 4 5
M  V30 5 1 5 6
M  V30 6 2 6 7
M  V30 7 1 7 8
M  V30 8 1 8 9
M  V30 9 2 9 10
M  V30 10 1 10 11
M  V30 11 1 11 12
M  V30 12 2 12 13
M  V30 13 1 13 14
M  V30 14 1 14 15
M  V30 15 2 15 16
M  V30 16 1 16 17
M  V30 17 1 17 18
M  V30 18 1 18 19
M  V30 19 1 19 20
M  V30 20 1 20 21
M  V30 21 1 21 22
M  V30 22 2 22 23
M  V30 23 1 22 24
M  V30 24 1 1 25
M  V30 25 1 1 26
M  V30 26 1 1 27
M  V30 27 1 2 28
M  V30 28 1 2 29
M  V30 29 1 3 30
M  V30 30 1 4 31
M  V30 31 1 5 32
M  V30 32 1 5 33
M  V30 33 1 6 34
M  V30 34 1 7 35
M  V30 35 1 8 36
M  V30 36 1 8 37
M  V30 37 1 9 38
M  V30 38 1 10 39
M  V30 39 1 11 40
M  V30 40 1 11 41
M  V30 41 1 12 42
M  V30 42 1 13 43
M  V30 43 1 14 44
M  V30 44 1 14 45
M  V30 45 1 15 46
M  V30 46 1 16 47
M  V30 47 1 17 48
M  V30 48 1 17 49
M  V30 49 1 18 50
M  V30 50 1 18 51
M  V30 51 1 19 52
M  V30 52 1 19 53
M  V30 53 1 20 54
M  V30 54 1 20 55
M  V30 55 1 21 56
M  V30 56 1 21 57
M  V30 57 1 24 58
M  V30 END BOND
M  V30 END CTAB
M  END
>  <Dataset>  (698) 
OralDrugs

>  <Ligand_Instance>  (698) 
nan

>  <PDB_ID>  (698) 
nan

>  <Standardized_SMILES>  (698) 
CC/C=C\C/C=C\C/C=C\C/C=C\C/C=C\CCCCCC(=O)O

>  <Name>  (698) 
Omega-3-Carboxylic Acids

>  <Pocket>  (698) 
nan

>  <ATP_Site>  (698) 
nan

>  <Peripheral>  (698) 
nan

>  <Num_H_Atoms_ProtBoundConf>  (698) 
nan

>  <Num_Resolved_Atoms>  (698) 
nan

>  <Num_Not_Resolved_Atoms>  (698) 
nan

$$$$
CHEMBL46
     RDKit          3D

  0  0  0  0  0  0  0  0  0  0999 V3000
M  V30 BEGIN CTAB
M  V30 COUNTS 41 44 0 0 0
M  V30 BEGIN ATOM
M  V30 1 C -3.563713 -2.267285 3.285757 0
M  V30 2 C -3.056714 -2.933259 2.056206 0
M  V30 3 N -3.677792 -3.941915 1.384284 0
M  V30 4 C -2.917587 -4.286525 0.321382 0
M  V30 5 C -1.797923 -3.496143 0.305436 0
M  V30 6 N -1.920056 -2.688550 1.374245 0
M  V30 7 C -0.958802 -1.678753 1.755986 0
M  V30 8 C -1.260605 -0.331887 1.111873 0
M  V30 9 C -1.240310 -0.403451 -0.393072 0
M  V30 10 C 0.107657 -0.547626 -0.985723 0
M  V30 11 C 1.180288 0.154482 -0.271917 0
M  V30 12 C 1.085024 0.731934 0.978416 0
M  V30 13 C 2.279616 1.301271 1.336852 0
M  V30 14 C 2.696300 1.983302 2.454530 0
M  V30 15 C 4.019735 2.427402 2.468377 0
M  V30 16 C 4.879880 2.189873 1.397011 0
M  V30 17 C 4.406592 1.498254 0.298068 0
M  V30 18 C 3.091276 1.040748 0.251181 0
M  V30 19 N 2.444447 0.361220 -0.705182 0
M  V30 20 C 3.042273 -0.054095 -1.963571 0
M  V30 21 C -0.222376 0.608957 1.613295 0
M  V30 22 O -0.454069 1.343472 2.627798 0
M  V30 23 H -4.036345 -1.297530 2.978299 0
M  V30 24 H -2.719009 -1.981985 3.953983 0
M  V30 25 H -4.319627 -2.907660 3.773082 0
M  V30 26 H -3.180058 -5.064917 -0.382953 0
M  V30 27 H -0.985014 -3.508861 -0.406426 0
M  V30 28 H -1.015455 -1.476482 2.865340 0
M  V30 29 H 0.093826 -1.968801 1.586476 0
M  V30 30 H -2.235610 0.043774 1.481605 0
M  V30 31 H -1.920876 -1.200961 -0.752466 0
M  V30 32 H -1.699016 0.545274 -0.758760 0
M  V30 33 H 0.088321 -0.143595 -2.038832 0
M  V30 34 H 0.371683 -1.641055 -1.062887 0
M  V30 35 H 2.005675 2.148481 3.262303 0
M  V30 36 H 4.371900 2.963417 3.329970 0
M  V30 37 H 5.884564 2.568454 1.492618 0
M  V30 38 H 5.135879 1.349414 -0.502346 0
M  V30 39 H 3.847489 -0.797756 -1.839750 0
M  V30 40 H 3.450847 0.816175 -2.535853 0
M  V30 41 H 2.250521 -0.552864 -2.589553 0
M  V30 END ATOM
M  V30 BEGIN BOND
M  V30 1 1 1 2
M  V30 2 2 2 3
M  V30 3 1 3 4
M  V30 4 2 4 5
M  V30 5 1 5 6
M  V30 6 1 6 7
M  V30 7 1 7 8
M  V30 8 1 8 9
M  V30 9 1 9 10
M  V30 10 1 10 11
M  V30 11 2 11 12
M  V30 12 1 12 13
M  V30 13 2 13 14
M  V30 14 1 14 15
M  V30 15 2 15 16
M  V30 16 1 16 17
M  V30 17 2 17 18
M  V30 18 1 18 19
M  V30 19 1 19 20
M  V30 20 1 12 21
M  V30 21 2 21 22
M  V30 22 1 6 2
M  V30 23 1 21 8
M  V30 24 1 19 11
M  V30 25 1 18 13
M  V30 26 1 1 23
M  V30 27 1 1 24
M  V30 28 1 1 25
M  V30 29 1 4 26
M  V30 30 1 5 27
M  V30 31 1 7 28
M  V30 32 1 7 29
M  V30 33 1 8 30
M  V30 34 1 9 31
M  V30 35 1 9 32
M  V30 36 1 10 33
M  V30 37 1 10 34
M  V30 38 1 14 35
M  V30 39 1 15 36
M  V30 40 1 16 37
M  V30 41 1 17 38
M  V30 42 1 20 39
M  V30 43 1 20 40
M  V30 44 1 20 41
M  V30 END BOND
M  V30 END CTAB
M  END
>  <Dataset>  (699) 
OralDrugs

>  <Ligand_Instance>  (699) 
nan

>  <PDB_ID>  (699) 
nan

>  <Standardized_SMILES>  (699) 
Cc1nccn1CC1CCc2c(c3ccccc3n2C)C1=O

>  <Name>  (699) 
Ondansetron

>  <Pocket>  (699) 
nan

>  <ATP_Site>  (699) 
nan

>  <Peripheral>  (699) 
nan

>  <Num_H_Atoms_ProtBoundConf>  (699) 
nan

>  <Num_Resolved_Atoms>  (699) 
nan

>  <Num_Not_Resolved_Atoms>  (699) 
nan

$$$$
CHEMBL1089318
     RDKit          3D

  0  0  0  0  0  0  0  0  0  0999 V3000
M  V30 BEGIN CTAB
M  V30 COUNTS 37 39 0 0 0
M  V30 BEGIN ATOM
M  V30 1 C 3.183161 -2.108941 0.622911 0
M  V30 2 C 3.357384 -0.756585 0.039336 0
M  V30 3 C 4.313347 -0.446552 -0.908676 0
M  V30 4 Cl 5.356076 -1.763338 -1.415808 0
M  V30 5 C 4.467691 0.817358 -1.447997 0
M  V30 6 C 5.541618 0.985266 -2.457299 0
M  V30 7 N 3.630325 1.791151 -1.014023 0 CHG=1 VAL=4
M  V30 8 O 3.823690 3.028023 -1.579876 0 CHG=-1 VAL=1
M  V30 9 C 2.683516 1.549002 -0.095605 0
M  V30 10 Cl 1.641304 2.868848 0.412036 0
M  V30 11 C 2.540309 0.280470 0.435327 0
M  V30 12 C 1.499785 0.053976 1.431778 0
M  V30 13 N 1.323910 0.103059 2.763698 0
M  V30 14 O 0.104416 -0.230922 3.067380 0
M  V30 15 C -0.579614 -0.512846 1.986544 0
M  V30 16 C -1.971869 -0.936695 1.774606 0
M  V30 17 C -2.469561 -1.182742 0.489566 0
M  V30 18 C -3.781382 -1.579791 0.339049 0
M  V30 19 O -4.240312 -1.813913 -0.941237 0
M  V30 20 C -4.612211 -1.739063 1.433635 0
M  V30 21 O -5.932257 -2.141612 1.249001 0
M  V30 22 C -4.127420 -1.497700 2.706599 0
M  V30 23 N -4.984500 -1.662525 3.832110 0 CHG=1 VAL=4
M  V30 24 O -4.585579 -1.954189 4.984052 0
M  V30 25 O -6.339955 -1.542967 3.882443 0 CHG=-1 VAL=1
M  V30 26 C -2.807632 -1.098016 2.858373 0
M  V30 27 N 0.301554 -0.332469 0.958375 0
M  V30 28 H 3.864478 -2.823725 0.136185 0
M  V30 29 H 3.256520 -2.101253 1.735413 0
M  V30 30 H 2.136620 -2.420601 0.337397 0
M  V30 31 H 5.342167 0.361606 -3.376738 0
M  V30 32 H 6.542506 0.734451 -2.101272 0
M  V30 33 H 5.473529 2.037330 -2.833426 0
M  V30 34 H -1.778948 -1.044410 -0.345727 0
M  V30 35 H -3.866085 -1.360206 -1.770733 0
M  V30 36 H -6.215303 -2.589236 0.378982 0
M  V30 37 H -2.493632 -0.926671 3.876593 0
M  V30 END ATOM
M  V30 BEGIN BOND
M  V30 1 1 1 2
M  V30 2 2 2 3
M  V30 3 1 3 4
M  V30 4 1 3 5
M  V30 5 1 5 6
M  V30 6 2 5 7
M  V30 7 1 7 8
M  V30 8 1 7 9
M  V30 9 1 9 10
M  V30 10 2 9 11
M  V30 11 1 11 12
M  V30 12 2 12 13
M  V30 13 1 13 14
M  V30 14 1 14 15
M  V30 15 1 15 16
M  V30 16 2 16 17
M  V30 17 1 17 18
M  V30 18 1 18 19
M  V30 19 2 18 20
M  V30 20 1 20 21
M  V30 21 1 20 22
M  V30 22 1 22 23
M  V30 23 2 23 24
M  V30 24 1 23 25
M  V30 25 2 22 26
M  V30 26 2 15 27
M  V30 27 1 11 2
M  V30 28 1 27 12
M  V30 29 1 26 16
M  V30 30 1 1 28
M  V30 31 1 1 29
M  V30 32 1 1 30
M  V30 33 1 6 31
M  V30 34 1 6 32
M  V30 35 1 6 33
M  V30 36 1 17 34
M  V30 37 1 19 35
M  V30 38 1 21 36
M  V30 39 1 26 37
M  V30 END BOND
M  V30 END CTAB
M  END
>  <Dataset>  (700) 
OralDrugs

>  <Ligand_Instance>  (700) 
nan

>  <PDB_ID>  (700) 
nan

>  <Standardized_SMILES>  (700) 
Cc1c(Cl)c(C)[n+]([O-])c(Cl)c1-c1noc(-c2cc(O)c(O)c([N+](=O)[O-])c2)n1

>  <Name>  (700) 
Opicapone

>  <Pocket>  (700) 
nan

>  <ATP_Site>  (700) 
nan

>  <Peripheral>  (700) 
nan

>  <Num_H_Atoms_ProtBoundConf>  (700) 
nan

>  <Num_Resolved_Atoms>  (700) 
nan

>  <Num_Not_Resolved_Atoms>  (700) 
nan

$$$$
CHEMBL175247
     RDKit          3D

  0  0  0  0  0  0  0  0  0  0999 V3000
M  V30 BEGIN CTAB
M  V30 COUNTS 88 88 0 0 0
M  V30 BEGIN ATOM
M  V30 1 C 4.876253 0.086791 -0.361173 0
M  V30 2 C 5.961618 -0.949459 -0.454093 0
M  V30 3 C 5.945961 -1.960732 0.646746 0
M  V30 4 C 4.621284 -2.697385 0.627248 0
M  V30 5 C 4.549657 -3.743964 1.690952 0
M  V30 6 C 3.276590 -4.497898 1.704931 0
M  V30 7 C 2.026644 -3.731310 1.958908 0
M  V30 8 C 2.063735 -3.056091 3.292756 0
M  V30 9 C 0.815479 -2.318011 3.630225 0
M  V30 10 C 0.480821 -1.206891 2.628410 0
M  V30 11 C -0.780253 -0.576191 3.102351 0
M  V30 12 C -1.420169 0.494655 2.336177 0 CFG=1
M  V30 13 C -0.762795 1.767888 2.042988 0
M  V30 14 C 0.477931 1.861535 1.270979 0 CFG=2
M  V30 15 O 0.820829 3.280340 1.161022 0
M  V30 16 C 0.149309 3.465261 -0.070305 0
M  V30 17 O -0.318341 4.537822 -0.544092 0
M  V30 18 C 0.365579 1.980419 -0.253406 0 CFG=1
M  V30 19 C 1.642103 1.650308 -0.965300 0
M  V30 20 C 1.605412 1.740903 -2.445111 0
M  V30 21 C 0.618152 0.803224 -3.068086 0
M  V30 22 C 0.625365 0.928721 -4.575421 0
M  V30 23 C -0.365181 -0.040207 -5.164678 0
M  V30 24 C -1.747532 0.270326 -4.641866 0
M  V30 25 O -2.125473 -0.015263 1.176004 0
M  V30 26 C -3.502966 -0.006813 1.245975 0
M  V30 27 O -4.332748 0.355130 2.128102 0
M  V30 28 C -4.585045 -0.440999 0.264665 0 CFG=2
M  V30 29 C -4.386899 0.377724 -0.959206 0
M  V30 30 C -5.337843 0.133623 -2.092703 0
M  V30 31 C -4.906848 1.089381 -3.218047 0
M  V30 32 C -6.721995 0.541403 -1.680635 0
M  V30 33 N -5.875325 -0.268236 0.893916 0
M  V30 34 C -6.571871 -1.466947 1.294639 0
M  V30 35 O -6.370934 -2.724344 1.254712 0
M  V30 36 H 4.239518 0.066743 -1.283178 0
M  V30 37 H 5.280072 1.131559 -0.337550 0
M  V30 38 H 4.236984 -0.036089 0.521316 0
M  V30 39 H 5.906436 -1.438138 -1.458534 0
M  V30 40 H 6.938341 -0.384436 -0.474148 0
M  V30 41 H 6.173633 -1.525917 1.631222 0
M  V30 42 H 6.724742 -2.734052 0.430659 0
M  V30 43 H 4.539693 -3.186491 -0.364426 0
M  V30 44 H 3.776918 -2.001928 0.741343 0
M  V30 45 H 4.829106 -3.339257 2.689067 0
M  V30 46 H 5.362383 -4.489960 1.451188 0
M  V30 47 H 3.286934 -5.350861 2.426613 0
M  V30 48 H 3.170490 -4.975688 0.687379 0
M  V30 49 H 1.193895 -4.486888 1.993177 0
M  V30 50 H 1.781545 -3.040244 1.128730 0
M  V30 51 H 2.317626 -3.832381 4.046530 0
M  V30 52 H 2.948260 -2.378291 3.279175 0
M  V30 53 H 0.929689 -1.865418 4.633506 0
M  V30 54 H -0.028834 -3.068463 3.627455 0
M  V30 55 H 1.323528 -0.494121 2.767183 0
M  V30 56 H 0.478305 -1.557039 1.602165 0
M  V30 57 H -1.499915 -1.456076 3.247407 0
M  V30 58 H -0.604762 -0.280976 4.188956 0
M  V30 59 H -2.323200 0.799331 3.003734 0
M  V30 60 H -1.529214 2.415677 1.490176 0
M  V30 61 H -0.640616 2.359877 3.013814 0
M  V30 62 H 1.402850 1.380239 1.580667 0
M  V30 63 H -0.549139 1.516377 -0.594530 0
M  V30 64 H 2.402946 2.401627 -0.603817 0
M  V30 65 H 2.048985 0.667905 -0.596672 0
M  V30 66 H 1.393270 2.799558 -2.710798 0
M  V30 67 H 2.603504 1.467100 -2.865018 0
M  V30 68 H 0.872133 -0.232925 -2.775939 0
M  V30 69 H -0.389448 1.067019 -2.706923 0
M  V30 70 H 1.625563 0.847427 -5.010237 0
M  V30 71 H 0.264367 1.959932 -4.793011 0
M  V30 72 H -0.142365 -1.095749 -4.832608 0
M  V30 73 H -0.338558 -0.018154 -6.278243 0
M  V30 74 H -2.537576 -0.258976 -5.240164 0
M  V30 75 H -1.938889 1.363612 -4.620636 0
M  V30 76 H -1.804950 -0.105406 -3.587637 0
M  V30 77 H -4.416936 -1.507368 0.138795 0
M  V30 78 H -4.442573 1.474684 -0.740108 0
M  V30 79 H -3.369792 0.113559 -1.359099 0
M  V30 80 H -5.268655 -0.923626 -2.395860 0
M  V30 81 H -3.860484 1.427529 -3.063166 0
M  V30 82 H -4.940687 0.592956 -4.213028 0
M  V30 83 H -5.595773 1.950031 -3.202351 0
M  V30 84 H -6.728045 1.397802 -0.983744 0
M  V30 85 H -7.229308 -0.313629 -1.235203 0
M  V30 86 H -7.313351 0.904552 -2.571502 0
M  V30 87 H -6.543201 0.457272 1.191843 0
M  V30 88 H -7.531753 -1.672686 1.777776 0
M  V30 END ATOM
M  V30 BEGIN BOND
M  V30 1 1 1 2
M  V30 2 1 2 3
M  V30 3 1 3 4
M  V30 4 1 4 5
M  V30 5 1 5 6
M  V30 6 1 6 7
M  V30 7 1 7 8
M  V30 8 1 8 9
M  V30 9 1 9 10
M  V30 10 1 10 11
M  V30 11 1 11 12
M  V30 12 1 12 13
M  V30 13 1 13 14
M  V30 14 1 14 15
M  V30 15 1 15 16
M  V30 16 2 16 17
M  V30 17 1 16 18
M  V30 18 1 18 19
M  V30 19 1 19 20
M  V30 20 1 20 21
M  V30 21 1 21 22
M  V30 22 1 22 23
M  V30 23 1 23 24
M  V30 24 1 12 25
M  V30 25 1 25 26
M  V30 26 2 26 27
M  V30 27 1 26 28
M  V30 28 1 28 29
M  V30 29 1 29 30
M  V30 30 1 30 31
M  V30 31 1 30 32
M  V30 32 1 28 33
M  V30 33 1 33 34
M  V30 34 2 34 35
M  V30 35 1 18 14
M  V30 36 1 1 36
M  V30 37 1 1 37
M  V30 38 1 1 38
M  V30 39 1 2 39
M  V30 40 1 2 40
M  V30 41 1 3 41
M  V30 42 1 3 42
M  V30 43 1 4 43
M  V30 44 1 4 44
M  V30 45 1 5 45
M  V30 46 1 5 46
M  V30 47 1 6 47
M  V30 48 1 6 48
M  V30 49 1 7 49
M  V30 50 1 7 50
M  V30 51 1 8 51
M  V30 52 1 8 52
M  V30 53 1 9 53
M  V30 54 1 9 54
M  V30 55 1 10 55
M  V30 56 1 10 56
M  V30 57 1 11 57
M  V30 58 1 11 58
M  V30 59 1 12 59 CFG=1
M  V30 60 1 13 60
M  V30 61 1 13 61
M  V30 62 1 14 62 CFG=3
M  V30 63 1 18 63 CFG=3
M  V30 64 1 19 64
M  V30 65 1 19 65
M  V30 66 1 20 66
M  V30 67 1 20 67
M  V30 68 1 21 68
M  V30 69 1 21 69
M  V30 70 1 22 70
M  V30 71 1 22 71
M  V30 72 1 23 72
M  V30 73 1 23 73
M  V30 74 1 24 74
M  V30 75 1 24 75
M  V30 76 1 24 76
M  V30 77 1 28 77 CFG=3
M  V30 78 1 29 78
M  V30 79 1 29 79
M  V30 80 1 30 80
M  V30 81 1 31 81
M  V30 82 1 31 82
M  V30 83 1 31 83
M  V30 84 1 32 84
M  V30 85 1 32 85
M  V30 86 1 32 86
M  V30 87 1 33 87
M  V30 88 1 34 88
M  V30 END BOND
M  V30 END CTAB
M  END
>  <Dataset>  (701) 
OralDrugs

>  <Ligand_Instance>  (701) 
nan

>  <PDB_ID>  (701) 
nan

>  <Standardized_SMILES>  (701) 
CCCCCCCCCCC[C@@H](C[C@@H]1OC(=O)[C@H]1CCCCCC)OC(=O)[C@H](CC(C)C)NC=O

>  <Name>  (701) 
Orlistat

>  <Pocket>  (701) 
nan

>  <ATP_Site>  (701) 
nan

>  <Peripheral>  (701) 
nan

>  <Num_H_Atoms_ProtBoundConf>  (701) 
nan

>  <Num_Resolved_Atoms>  (701) 
nan

>  <Num_Not_Resolved_Atoms>  (701) 
nan

$$$$
CHEMBL900
     RDKit          3D

  0  0  0  0  0  0  0  0  0  0999 V3000
M  V30 BEGIN CTAB
M  V30 COUNTS 43 44 0 0 0
M  V30 BEGIN ATOM
M  V30 1 C -2.216560 -1.228915 1.693253 0
M  V30 2 C -0.931221 -1.688985 2.268312 0
M  V30 3 C -0.957563 -2.389452 3.452753 0
M  V30 4 C 0.210506 -2.846024 4.010726 0
M  V30 5 C 1.398573 -2.576042 3.341912 0
M  V30 6 C 1.396663 -1.869357 2.153214 0
M  V30 7 C 0.218267 -1.398798 1.573941 0
M  V30 8 C 0.457986 -0.673664 0.326518 0
M  V30 9 O -0.588799 -0.068104 -0.270352 0
M  V30 10 C -0.498442 1.191520 -0.686712 0
M  V30 11 C -0.389937 2.380060 0.165883 0
M  V30 12 N 0.695599 2.517009 1.075138 0
M  V30 13 C 0.834406 3.955040 1.463325 0
M  V30 14 C 0.413993 1.799257 2.341897 0
M  V30 15 C 0.991288 -1.773142 -0.624230 0
M  V30 16 C 2.351409 -1.834550 -0.902533 0
M  V30 17 C 2.969916 -2.745845 -1.710085 0
M  V30 18 C 2.130811 -3.687262 -2.292216 0
M  V30 19 C 0.778157 -3.659148 -2.040423 0
M  V30 20 C 0.195393 -2.725019 -1.221647 0
M  V30 21 H -2.539541 -0.243943 2.127648 0
M  V30 22 H -2.994987 -1.990380 2.015290 0
M  V30 23 H -2.264863 -1.265792 0.594443 0
M  V30 24 H -1.900828 -2.567811 3.926497 0
M  V30 25 H 0.131351 -3.394313 4.948151 0
M  V30 26 H 2.263654 -2.979891 3.864287 0
M  V30 27 H 2.431620 -1.774117 1.805874 0
M  V30 28 H 1.331874 0.001338 0.450355 0
M  V30 29 H 0.342003 1.312056 -1.475076 0
M  V30 30 H -1.401487 1.404309 -1.380506 0
M  V30 31 H -1.378385 2.651490 0.663629 0
M  V30 32 H -0.274571 3.268522 -0.549650 0
M  V30 33 H 1.837731 4.044512 1.883787 0
M  V30 34 H 0.061865 4.269376 2.154649 0
M  V30 35 H 0.788952 4.504623 0.509655 0
M  V30 36 H 0.389881 2.557509 3.133437 0
M  V30 37 H 1.312804 1.182118 2.528124 0
M  V30 38 H -0.532753 1.254794 2.310109 0
M  V30 39 H 3.004315 -1.093315 -0.443366 0
M  V30 40 H 4.052987 -2.709411 -1.867335 0
M  V30 41 H 2.572712 -4.430346 -2.939371 0
M  V30 42 H 0.140803 -4.404232 -2.504343 0
M  V30 43 H -0.860619 -2.655059 -0.986174 0
M  V30 END ATOM
M  V30 BEGIN BOND
M  V30 1 1 1 2
M  V30 2 2 2 3
M  V30 3 1 3 4
M  V30 4 2 4 5
M  V30 5 1 5 6
M  V30 6 2 6 7
M  V30 7 1 7 8
M  V30 8 1 8 9
M  V30 9 1 9 10
M  V30 10 1 10 11
M  V30 11 1 11 12
M  V30 12 1 12 13
M  V30 13 1 12 14
M  V30 14 1 8 15
M  V30 15 2 15 16
M  V30 16 1 16 17
M  V30 17 2 17 18
M  V30 18 1 18 19
M  V30 19 2 19 20
M  V30 20 1 7 2
M  V30 21 1 20 15
M  V30 22 1 1 21
M  V30 23 1 1 22
M  V30 24 1 1 23
M  V30 25 1 3 24
M  V30 26 1 4 25
M  V30 27 1 5 26
M  V30 28 1 6 27
M  V30 29 1 8 28
M  V30 30 1 10 29
M  V30 31 1 10 30
M  V30 32 1 11 31
M  V30 33 1 11 32
M  V30 34 1 13 33
M  V30 35 1 13 34
M  V30 36 1 13 35
M  V30 37 1 14 36
M  V30 38 1 14 37
M  V30 39 1 14 38
M  V30 40 1 16 39
M  V30 41 1 17 40
M  V30 42 1 18 41
M  V30 43 1 19 42
M  V30 44 1 20 43
M  V30 END BOND
M  V30 END CTAB
M  END
>  <Dataset>  (702) 
OralDrugs

>  <Ligand_Instance>  (702) 
nan

>  <PDB_ID>  (702) 
nan

>  <Standardized_SMILES>  (702) 
Cc1ccccc1C(OCCN(C)C)c1ccccc1

>  <Name>  (702) 
Orphenadrine

>  <Pocket>  (702) 
nan

>  <ATP_Site>  (702) 
nan

>  <Peripheral>  (702) 
nan

>  <Num_H_Atoms_ProtBoundConf>  (702) 
nan

>  <Num_Resolved_Atoms>  (702) 
nan

>  <Num_Not_Resolved_Atoms>  (702) 
nan

$$$$
CHEMBL3099695
     RDKit          3D

  0  0  0  0  0  0  0  0  0  0999 V3000
M  V30 BEGIN CTAB
M  V30 COUNTS 27 29 0 0 0
M  V30 BEGIN ATOM
M  V30 1 N 2.452471 -5.305857 3.054168 0
M  V30 2 C 2.124191 -4.265098 2.669613 0
M  V30 3 C 1.722150 -2.962049 2.172844 0
M  V30 4 C 0.857263 -2.938243 1.106644 0
M  V30 5 C 0.469920 -1.685345 0.626560 0
M  V30 6 C 0.947626 -0.530744 1.213001 0
M  V30 7 C 0.446422 0.743392 0.596325 0 CFG=1
M  V30 8 C 0.867618 0.952561 -0.809610 0
M  V30 9 C -0.333745 0.680935 -1.685097 0
M  V30 10 C -1.461225 0.710585 -0.747923 0
M  V30 11 C -2.856834 0.717056 -0.651664 0
M  V30 12 N -3.178112 0.755228 0.662680 0
M  V30 13 C -2.022377 0.772552 1.381729 0
M  V30 14 N -0.999535 0.745219 0.515546 0
M  V30 15 C 1.826770 -0.580281 2.296860 0
M  V30 16 F 2.231027 0.599704 2.792008 0
M  V30 17 C 2.207891 -1.817094 2.769264 0
M  V30 18 H 0.503741 -3.876923 0.672890 0
M  V30 19 H -0.210293 -1.721657 -0.211425 0
M  V30 20 H 0.767782 1.613723 1.212733 0
M  V30 21 H 1.084868 2.048328 -0.959747 0
M  V30 22 H 1.759744 0.384246 -1.131272 0
M  V30 23 H -0.457919 1.446599 -2.484755 0
M  V30 24 H -0.212785 -0.280658 -2.224117 0
M  V30 25 H -3.573301 0.696195 -1.456299 0
M  V30 26 H -2.011622 0.803670 2.482864 0
M  V30 27 H 2.893924 -1.850408 3.614411 0
M  V30 END ATOM
M  V30 BEGIN BOND
M  V30 1 3 1 2
M  V30 2 1 2 3
M  V30 3 2 3 4
M  V30 4 1 4 5
M  V30 5 2 5 6
M  V30 6 1 6 7
M  V30 7 1 7 8
M  V30 8 1 8 9
M  V30 9 1 9 10
M  V30 10 2 10 11
M  V30 11 1 11 12
M  V30 12 2 12 13
M  V30 13 1 13 14
M  V30 14 1 6 15
M  V30 15 1 15 16
M  V30 16 2 15 17
M  V30 17 1 17 3
M  V30 18 1 14 7
M  V30 19 1 14 10
M  V30 20 1 4 18
M  V30 21 1 5 19
M  V30 22 1 7 20 CFG=1
M  V30 23 1 8 21
M  V30 24 1 8 22
M  V30 25 1 9 23
M  V30 26 1 9 24
M  V30 27 1 11 25
M  V30 28 1 13 26
M  V30 29 1 17 27
M  V30 END BOND
M  V30 END CTAB
M  END
>  <Dataset>  (703) 
OralDrugs

>  <Ligand_Instance>  (703) 
nan

>  <PDB_ID>  (703) 
nan

>  <Standardized_SMILES>  (703) 
N#Cc1ccc([C@H]2CCc3cncn32)c(F)c1

>  <Name>  (703) 
Osilodrostat

>  <Pocket>  (703) 
nan

>  <ATP_Site>  (703) 
nan

>  <Peripheral>  (703) 
nan

>  <Num_H_Atoms_ProtBoundConf>  (703) 
nan

>  <Num_Resolved_Atoms>  (703) 
nan

>  <Num_Not_Resolved_Atoms>  (703) 
nan

$$$$
CHEMBL3353410
     RDKit          3D

  0  0  0  0  0  0  0  0  0  0999 V3000
M  V30 BEGIN CTAB
M  V30 COUNTS 70 73 0 0 0
M  V30 BEGIN ATOM
M  V30 1 C 0.771766 1.999818 5.561608 0
M  V30 2 C 1.154261 2.628753 4.457822 0
M  V30 3 C 1.411451 2.098190 3.123074 0
M  V30 4 O 1.780952 2.585474 1.999975 0
M  V30 5 N 1.228055 0.679786 2.928298 0
M  V30 6 C 1.495788 0.190226 1.600292 0
M  V30 7 C 0.525722 0.213712 0.621729 0
M  V30 8 C 0.664246 -0.234399 -0.673687 0
M  V30 9 N -0.311633 -0.210922 -1.670430 0
M  V30 10 C -1.645962 0.273267 -1.579560 0
M  V30 11 N -2.202914 0.801610 -0.481793 0
M  V30 12 C -3.460549 1.240861 -0.453126 0
M  V30 13 C -4.146880 1.112161 -1.634432 0
M  V30 14 C -3.680671 0.592649 -2.802488 0
M  V30 15 C -4.311404 0.429357 -4.090718 0
M  V30 16 C -3.551097 0.016280 -5.194455 0
M  V30 17 N -4.349921 -0.073365 -6.270004 0
M  V30 18 C -3.956698 -0.468047 -7.621302 0
M  V30 19 C -5.620437 0.252101 -5.979662 0
M  V30 20 C -6.830621 0.338861 -6.634200 0
M  V30 21 C -7.998883 0.716854 -6.003594 0
M  V30 22 C -7.886391 1.012147 -4.640080 0
M  V30 23 C -6.679222 0.925092 -3.990397 0
M  V30 24 C -5.556924 0.552877 -4.638921 0
M  V30 25 N -2.413017 0.205608 -2.651694 0
M  V30 26 C 1.941038 -0.748924 -0.946303 0
M  V30 27 O 2.207289 -1.228460 -2.204802 0
M  V30 28 C 3.474482 -1.758849 -2.542851 0
M  V30 29 C 2.933401 -0.787911 0.006690 0
M  V30 30 C 2.739220 -0.324673 1.292140 0
M  V30 31 N 3.807296 -0.390776 2.233110 0
M  V30 32 C 4.422760 0.830498 2.679617 0
M  V30 33 C 4.416646 -1.567162 2.872601 0
M  V30 34 C 3.699796 -2.807071 2.403306 0
M  V30 35 N 4.269522 -3.995058 3.015972 0
M  V30 36 C 4.021059 -4.064642 4.427286 0
M  V30 37 C 3.670110 -5.168337 2.363912 0
M  V30 38 H 0.631817 0.934446 5.448463 0
M  V30 39 H 0.666586 2.697247 6.390498 0
M  V30 40 H 1.353551 3.685535 4.332839 0
M  V30 41 H 0.923222 -0.002584 3.660856 0
M  V30 42 H -0.397714 0.623370 0.937465 0
M  V30 43 H -0.009840 -0.606954 -2.612423 0
M  V30 44 H -3.928016 1.669590 0.419006 0
M  V30 45 H -5.145847 1.475725 -1.609110 0
M  V30 46 H -2.481029 -0.225191 -5.298234 0
M  V30 47 H -3.656289 0.391249 -8.243284 0
M  V30 48 H -3.062062 -1.145301 -7.545701 0
M  V30 49 H -4.749980 -1.088525 -8.091219 0
M  V30 50 H -6.834853 0.094613 -7.687728 0
M  V30 51 H -8.950984 0.783625 -6.525776 0
M  V30 52 H -8.838380 1.305818 -4.184836 0
M  V30 53 H -6.769152 1.173085 -2.968325 0
M  V30 54 H 4.273203 -0.970449 -2.419460 0
M  V30 55 H 3.517116 -2.021144 -3.622676 0
M  V30 56 H 3.693370 -2.590867 -1.867002 0
M  V30 57 H 3.904334 -1.203389 -0.307899 0
M  V30 58 H 5.533375 0.683789 2.783190 0
M  V30 59 H 4.346009 1.660650 1.936234 0
M  V30 60 H 4.073912 1.104379 3.692975 0
M  V30 61 H 5.494312 -1.631524 2.550995 0
M  V30 62 H 4.353205 -1.507397 3.969912 0
M  V30 63 H 3.743170 -2.909404 1.313128 0
M  V30 64 H 2.631515 -2.673074 2.709160 0
M  V30 65 H 3.454606 -3.166706 4.738908 0
M  V30 66 H 4.994317 -4.067139 4.976390 0
M  V30 67 H 3.416815 -4.965846 4.705180 0
M  V30 68 H 3.255651 -4.865904 1.368480 0
M  V30 69 H 2.790298 -5.446397 2.991557 0
M  V30 70 H 4.361649 -6.020651 2.297950 0
M  V30 END ATOM
M  V30 BEGIN BOND
M  V30 1 2 1 2
M  V30 2 1 2 3
M  V30 3 2 3 4
M  V30 4 1 3 5
M  V30 5 1 5 6
M  V30 6 2 6 7
M  V30 7 1 7 8
M  V30 8 1 8 9
M  V30 9 1 9 10
M  V30 10 2 10 11
M  V30 11 1 11 12
M  V30 12 2 12 13
M  V30 13 1 13 14
M  V30 14 1 14 15
M  V30 15 2 15 16
M  V30 16 1 16 17
M  V30 17 1 17 18
M  V30 18 1 17 19
M  V30 19 2 19 20
M  V30 20 1 20 21
M  V30 21 2 21 22
M  V30 22 1 22 23
M  V30 23 2 23 24
M  V30 24 2 14 25
M  V30 25 2 8 26
M  V30 26 1 26 27
M  V30 27 1 27 28
M  V30 28 1 26 29
M  V30 29 2 29 30
M  V30 30 1 30 31
M  V30 31 1 31 32
M  V30 32 1 31 33
M  V30 33 1 33 34
M  V30 34 1 34 35
M  V30 35 1 35 36
M  V30 36 1 35 37
M  V30 37 1 30 6
M  V30 38 1 25 10
M  V30 39 1 24 15
M  V30 40 1 24 19
M  V30 41 1 1 38
M  V30 42 1 1 39
M  V30 43 1 2 40
M  V30 44 1 5 41
M  V30 45 1 7 42
M  V30 46 1 9 43
M  V30 47 1 12 44
M  V30 48 1 13 45
M  V30 49 1 16 46
M  V30 50 1 18 47
M  V30 51 1 18 48
M  V30 52 1 18 49
M  V30 53 1 20 50
M  V30 54 1 21 51
M  V30 55 1 22 52
M  V30 56 1 23 53
M  V30 57 1 28 54
M  V30 58 1 28 55
M  V30 59 1 28 56
M  V30 60 1 29 57
M  V30 61 1 32 58
M  V30 62 1 32 59
M  V30 63 1 32 60
M  V30 64 1 33 61
M  V30 65 1 33 62
M  V30 66 1 34 63
M  V30 67 1 34 64
M  V30 68 1 36 65
M  V30 69 1 36 66
M  V30 70 1 36 67
M  V30 71 1 37 68
M  V30 72 1 37 69
M  V30 73 1 37 70
M  V30 END BOND
M  V30 END CTAB
M  END
>  <Dataset>  (704) 
OralDrugs

>  <Ligand_Instance>  (704) 
nan

>  <PDB_ID>  (704) 
nan

>  <Standardized_SMILES>  (704) 
C=CC(=O)Nc1cc(Nc2nccc(-c3cn(C)c4ccccc34)n2)c(OC)cc1N(C)CCN(C)C

>  <Name>  (704) 
Osimertinib

>  <Pocket>  (704) 
nan

>  <ATP_Site>  (704) 
nan

>  <Peripheral>  (704) 
nan

>  <Num_H_Atoms_ProtBoundConf>  (704) 
nan

>  <Num_Resolved_Atoms>  (704) 
nan

>  <Num_Not_Resolved_Atoms>  (704) 
nan

$$$$
CHEMBL2105395
     RDKit          3D

  0  0  0  0  0  0  0  0  0  0999 V3000
M  V30 BEGIN CTAB
M  V30 COUNTS 50 52 0 0 0
M  V30 BEGIN ATOM
M  V30 1 O 2.074136 -5.520248 3.005578 0
M  V30 2 C 0.916086 -5.947875 2.309204 0
M  V30 3 C 1.294408 -5.948472 0.860447 0
M  V30 4 O 1.673020 -4.681709 0.440463 0
M  V30 5 C 0.929258 -3.565083 0.384650 0
M  V30 6 C 1.778994 -2.546309 -0.083564 0
M  V30 7 C 1.345100 -1.225067 -0.270962 0
M  V30 8 C 0.018917 -0.897090 0.015569 0
M  V30 9 C -0.565078 0.428751 -0.109834 0
M  V30 10 C 0.073221 1.493195 0.335114 0
M  V30 11 C -0.465447 2.874361 0.228407 0
M  V30 12 C -0.707422 3.483519 1.582549 0
M  V30 13 Cl -1.351302 5.128892 1.486923 0
M  V30 14 C 1.356798 1.434521 1.027170 0
M  V30 15 C 2.439134 2.254926 0.795084 0
M  V30 16 C 3.611134 2.157631 1.499613 0
M  V30 17 C 3.758377 1.221609 2.484048 0
M  V30 18 C 2.721143 0.366718 2.773685 0
M  V30 19 C 1.553716 0.490731 2.045842 0
M  V30 20 C -1.891130 0.472641 -0.707916 0
M  V30 21 C -3.028542 1.104907 -0.262290 0
M  V30 22 C -4.228146 1.100867 -0.924751 0
M  V30 23 C -4.282333 0.402921 -2.128999 0
M  V30 24 C -3.170681 -0.258223 -2.634622 0
M  V30 25 C -1.989646 -0.211489 -1.913116 0
M  V30 26 C -0.817514 -1.889931 0.472946 0
M  V30 27 C -0.361520 -3.174712 0.645647 0
M  V30 28 H 1.905338 -4.742026 3.563076 0
M  V30 29 H 0.139830 -5.215016 2.526156 0
M  V30 30 H 0.628447 -6.955351 2.678331 0
M  V30 31 H 0.359350 -6.215666 0.267606 0
M  V30 32 H 2.071412 -6.712779 0.623327 0
M  V30 33 H 2.839243 -2.576702 -0.366576 0
M  V30 34 H 1.935114 -0.394248 -0.633864 0
M  V30 35 H 0.384592 3.453413 -0.263500 0
M  V30 36 H -1.371837 2.937755 -0.362452 0
M  V30 37 H 0.254403 3.540194 2.158798 0
M  V30 38 H -1.393457 2.796382 2.152088 0
M  V30 39 H 2.341015 2.996483 0.026665 0
M  V30 40 H 4.413458 2.858478 1.237765 0
M  V30 41 H 4.712458 1.214567 2.986659 0
M  V30 42 H 2.840724 -0.369619 3.550682 0
M  V30 43 H 0.776068 -0.226202 2.348037 0
M  V30 44 H -2.939918 1.614906 0.683447 0
M  V30 45 H -5.045721 1.637428 -0.467729 0
M  V30 46 H -5.258741 0.436011 -2.608178 0
M  V30 47 H -3.316220 -0.767082 -3.570141 0
M  V30 48 H -1.205231 -0.772290 -2.425305 0
M  V30 49 H -1.878922 -1.753258 0.728900 0
M  V30 50 H -0.974561 -3.976796 0.978585 0
M  V30 END ATOM
M  V30 BEGIN BOND
M  V30 1 1 1 2
M  V30 2 1 2 3
M  V30 3 1 3 4
M  V30 4 1 4 5
M  V30 5 2 5 6
M  V30 6 1 6 7
M  V30 7 2 7 8
M  V30 8 1 8 9
M  V30 9 2 9 10
M  V30 10 1 10 11
M  V30 11 1 11 12
M  V30 12 1 12 13
M  V30 13 1 10 14
M  V30 14 2 14 15
M  V30 15 1 15 16
M  V30 16 2 16 17
M  V30 17 1 17 18
M  V30 18 2 18 19
M  V30 19 1 9 20
M  V30 20 2 20 21
M  V30 21 1 21 22
M  V30 22 2 22 23
M  V30 23 1 23 24
M  V30 24 2 24 25
M  V30 25 1 8 26
M  V30 26 2 26 27
M  V30 27 1 27 5
M  V30 28 1 19 14
M  V30 29 1 25 20
M  V30 30 1 1 28
M  V30 31 1 2 29
M  V30 32 1 2 30
M  V30 33 1 3 31
M  V30 34 1 3 32
M  V30 35 1 6 33
M  V30 36 1 7 34
M  V30 37 1 11 35
M  V30 38 1 11 36
M  V30 39 1 12 37
M  V30 40 1 12 38
M  V30 41 1 15 39
M  V30 42 1 16 40
M  V30 43 1 17 41
M  V30 44 1 18 42
M  V30 45 1 19 43
M  V30 46 1 21 44
M  V30 47 1 22 45
M  V30 48 1 23 46
M  V30 49 1 24 47
M  V30 50 1 25 48
M  V30 51 1 26 49
M  V30 52 1 27 50
M  V30 END BOND
M  V30 END CTAB
M  END
>  <Dataset>  (705) 
OralDrugs

>  <Ligand_Instance>  (705) 
nan

>  <PDB_ID>  (705) 
nan

>  <Standardized_SMILES>  (705) 
OCCOc1ccc(/C(=C(/CCCl)c2ccccc2)c2ccccc2)cc1

>  <Name>  (705) 
Ospemifene

>  <Pocket>  (705) 
nan

>  <ATP_Site>  (705) 
nan

>  <Peripheral>  (705) 
nan

>  <Num_H_Atoms_ProtBoundConf>  (705) 
nan

>  <Num_Resolved_Atoms>  (705) 
nan

>  <Num_Not_Resolved_Atoms>  (705) 
nan

$$$$
CHEMBL3311228
     RDKit          3D

  0  0  0  0  0  0  0  0  0  0999 V3000
M  V30 BEGIN CTAB
M  V30 COUNTS 53 56 0 0 0
M  V30 BEGIN ATOM
M  V30 1 O 1.515253 1.957302 0.836421 0
M  V30 2 C 1.635307 1.654536 2.244547 0 CFG=1
M  V30 3 C 2.620798 0.528120 2.252861 0
M  V30 4 N 3.020690 -0.018294 3.493429 0
M  V30 5 C 2.503147 -0.991614 4.255734 0
M  V30 6 N 3.297836 -1.156111 5.324236 0
M  V30 7 N 4.290653 -0.295085 5.219821 0
M  V30 8 N 4.119310 0.381028 4.124730 0
M  V30 9 C 2.045763 2.903891 2.857495 0
M  V30 10 C 2.333408 4.055606 2.105505 0
M  V30 11 C 2.762075 5.276625 2.575830 0
M  V30 12 C 2.937739 5.414721 3.931686 0
M  V30 13 F 3.356191 6.592705 4.428433 0
M  V30 14 C 2.683024 4.348729 4.751714 0
M  V30 15 C 2.258235 3.170244 4.191778 0
M  V30 16 F 1.995906 2.196563 5.091338 0
M  V30 17 C 0.215653 1.210955 2.600364 0
M  V30 18 F 0.199908 0.874771 3.917550 0
M  V30 19 F -0.641098 2.292361 2.410503 0
M  V30 20 C -0.262439 0.097330 1.745162 0
M  V30 21 C -0.955235 0.418540 0.589901 0
M  V30 22 C -1.458836 -0.512044 -0.301762 0
M  V30 23 C -1.264231 -1.858994 -0.032819 0
M  V30 24 C -1.775951 -2.883689 -0.940399 0
M  V30 25 C -2.178678 -4.122807 -0.488325 0
M  V30 26 C -2.659283 -5.047251 -1.432726 0
M  V30 27 C -2.737128 -4.741942 -2.804718 0
M  V30 28 O -3.226532 -5.819792 -3.408130 0
M  V30 29 C -3.554548 -6.171377 -4.699686 0
M  V30 30 C -4.634892 -5.399794 -5.375764 0
M  V30 31 F -4.451084 -4.072068 -5.534247 0
M  V30 32 F -4.860661 -5.942749 -6.648904 0
M  V30 33 F -5.853255 -5.613261 -4.706524 0
M  V30 34 C -2.307290 -3.479943 -3.130466 0
M  V30 35 C -1.826631 -2.523012 -2.269859 0
M  V30 36 C -0.573298 -2.179487 1.119533 0
M  V30 37 N -0.110520 -1.223293 1.943149 0
M  V30 38 H 0.810476 2.625936 0.717207 0
M  V30 39 H 2.150777 -0.274809 1.604123 0
M  V30 40 H 3.550680 0.803272 1.668928 0
M  V30 41 H 1.609689 -1.561121 4.072457 0
M  V30 42 H 2.223499 4.038549 1.010990 0
M  V30 43 H 2.961207 6.113815 1.929421 0
M  V30 44 H 2.829974 4.489228 5.803808 0
M  V30 45 H -1.188528 1.426292 0.247150 0
M  V30 46 H -1.999814 -0.294470 -1.204927 0
M  V30 47 H -2.080767 -4.258226 0.570452 0
M  V30 48 H -2.926239 -5.961006 -0.885938 0
M  V30 49 H -2.659995 -6.123862 -5.397120 0
M  V30 50 H -3.854892 -7.256624 -4.781993 0
M  V30 51 H -2.371904 -3.297093 -4.188133 0
M  V30 52 H -1.535490 -1.583144 -2.715934 0
M  V30 53 H -0.391911 -3.222137 1.379725 0
M  V30 END ATOM
M  V30 BEGIN BOND
M  V30 1 1 2 1 CFG=3
M  V30 2 1 2 3
M  V30 3 1 3 4
M  V30 4 1 4 5
M  V30 5 2 5 6
M  V30 6 1 6 7
M  V30 7 2 7 8
M  V30 8 1 2 9
M  V30 9 2 9 10
M  V30 10 1 10 11
M  V30 11 2 11 12
M  V30 12 1 12 13
M  V30 13 1 12 14
M  V30 14 2 14 15
M  V30 15 1 15 16
M  V30 16 1 2 17
M  V30 17 1 17 18
M  V30 18 1 17 19
M  V30 19 1 17 20
M  V30 20 2 20 21
M  V30 21 1 21 22
M  V30 22 2 22 23
M  V30 23 1 23 24
M  V30 24 2 24 25
M  V30 25 1 25 26
M  V30 26 2 26 27
M  V30 27 1 27 28
M  V30 28 1 28 29
M  V30 29 1 29 30
M  V30 30 1 30 31
M  V30 31 1 30 32
M  V30 32 1 30 33
M  V30 33 1 27 34
M  V30 34 2 34 35
M  V30 35 1 23 36
M  V30 36 2 36 37
M  V30 37 1 8 4
M  V30 38 1 15 9
M  V30 39 1 37 20
M  V30 40 1 35 24
M  V30 41 1 1 38
M  V30 42 1 3 39
M  V30 43 1 3 40
M  V30 44 1 5 41
M  V30 45 1 10 42
M  V30 46 1 11 43
M  V30 47 1 14 44
M  V30 48 1 21 45
M  V30 49 1 22 46
M  V30 50 1 25 47
M  V30 51 1 26 48
M  V30 52 1 29 49
M  V30 53 1 29 50
M  V30 54 1 34 51
M  V30 55 1 35 52
M  V30 56 1 36 53
M  V30 END BOND
M  V30 END CTAB
M  END
>  <Dataset>  (706) 
OralDrugs

>  <Ligand_Instance>  (706) 
nan

>  <PDB_ID>  (706) 
nan

>  <Standardized_SMILES>  (706) 
O[C@@](Cn1cnnn1)(c1ccc(F)cc1F)C(F)(F)c1ccc(-c2ccc(OCC(F)(F)F)cc2)cn1

>  <Name>  (706) 
Oteseconazole

>  <Pocket>  (706) 
nan

>  <ATP_Site>  (706) 
nan

>  <Peripheral>  (706) 
nan

>  <Num_H_Atoms_ProtBoundConf>  (706) 
nan

>  <Num_Resolved_Atoms>  (706) 
nan

>  <Num_Not_Resolved_Atoms>  (706) 
nan

$$$$
CHEMBL819
     RDKit          3D

  0  0  0  0  0  0  0  0  0  0999 V3000
M  V30 BEGIN CTAB
M  V30 COUNTS 47 50 0 0 0
M  V30 BEGIN ATOM
M  V30 1 C 1.499269 -0.403288 3.422017 0
M  V30 2 C 2.481345 0.230004 2.522440 0
M  V30 3 O 3.750927 0.531709 2.744525 0
M  V30 4 N 4.264298 1.077716 1.697942 0
M  V30 5 C 3.314593 1.153766 0.721940 0
M  V30 6 C 3.804854 1.766136 -0.504960 0
M  V30 7 C 3.648726 1.251723 -1.773961 0
M  V30 8 C 4.099925 1.849764 -2.930353 0
M  V30 9 C 4.757378 3.054486 -2.799849 0
M  V30 10 C 4.969817 3.659693 -1.580880 0
M  V30 11 C 4.484259 2.988512 -0.489261 0
M  V30 12 C 2.168293 0.607852 1.256604 0
M  V30 13 C 0.991584 0.573024 0.415286 0
M  V30 14 O 0.820147 1.019822 -0.769948 0
M  V30 15 N -0.242527 0.011824 0.766115 0
M  V30 16 C -1.424308 -0.025067 -0.073709 0 CFG=2
M  V30 17 C -2.679606 0.388792 0.597750 0
M  V30 18 O -3.318806 1.476441 0.786209 0
M  V30 19 N -2.988851 -0.944724 1.014358 0
M  V30 20 C -2.086886 -1.382140 -0.042616 0 CFG=2
M  V30 21 S -1.113248 -2.608149 0.915195 0
M  V30 22 C -2.367410 -2.929302 2.198062 0
M  V30 23 C -2.630816 -4.413045 2.201384 0
M  V30 24 C -1.950671 -2.411748 3.540900 0
M  V30 25 C -3.523082 -2.125285 1.693013 0 CFG=2
M  V30 26 C -4.472279 -2.856395 0.849500 0
M  V30 27 O -4.691260 -2.382469 -0.308812 0
M  V30 28 O -5.392283 -3.602008 0.087400 0
M  V30 29 H 2.046423 -0.537586 4.406891 0
M  V30 30 H 1.222444 -1.407511 3.103741 0
M  V30 31 H 0.657327 0.271169 3.678955 0
M  V30 32 H 3.151562 0.311144 -1.903429 0
M  V30 33 H 3.943010 1.389709 -3.901225 0
M  V30 34 H 5.131816 3.564795 -3.683682 0
M  V30 35 H 5.482719 4.606025 -1.441453 0
M  V30 36 H 4.643438 3.454475 0.492802 0
M  V30 37 H -0.410171 -0.439336 1.692200 0
M  V30 38 H -1.337749 0.429221 -1.073165 0
M  V30 39 H -2.533036 -1.754569 -0.959655 0
M  V30 40 H -1.635230 -4.903890 2.129274 0
M  V30 41 H -3.285039 -4.740045 1.390502 0
M  V30 42 H -3.021587 -4.697205 3.220643 0
M  V30 43 H -0.863843 -2.515042 3.722382 0
M  V30 44 H -2.313934 -1.383847 3.656178 0
M  V30 45 H -2.491946 -3.015574 4.295672 0
M  V30 46 H -4.077806 -1.764957 2.580317 0
M  V30 47 H -5.891691 -4.368892 0.558356 0
M  V30 END ATOM
M  V30 BEGIN BOND
M  V30 1 1 1 2
M  V30 2 1 2 3
M  V30 3 1 3 4
M  V30 4 2 4 5
M  V30 5 1 5 6
M  V30 6 2 6 7
M  V30 7 1 7 8
M  V30 8 2 8 9
M  V30 9 1 9 10
M  V30 10 2 10 11
M  V30 11 1 5 12
M  V30 12 1 12 13
M  V30 13 2 13 14
M  V30 14 1 13 15
M  V30 15 1 15 16
M  V30 16 1 16 17
M  V30 17 2 17 18
M  V30 18 1 17 19
M  V30 19 1 19 20
M  V30 20 1 20 21
M  V30 21 1 21 22
M  V30 22 1 22 23
M  V30 23 1 22 24
M  V30 24 1 22 25
M  V30 25 1 25 26
M  V30 26 2 26 27
M  V30 27 1 26 28
M  V30 28 2 12 2
M  V30 29 1 20 16
M  V30 30 1 11 6
M  V30 31 1 25 19
M  V30 32 1 1 29
M  V30 33 1 1 30
M  V30 34 1 1 31
M  V30 35 1 7 32
M  V30 36 1 8 33
M  V30 37 1 9 34
M  V30 38 1 10 35
M  V30 39 1 11 36
M  V30 40 1 15 37
M  V30 41 1 16 38 CFG=3
M  V30 42 1 20 39 CFG=3
M  V30 43 1 23 40
M  V30 44 1 23 41
M  V30 45 1 23 42
M  V30 46 1 24 43
M  V30 47 1 24 44
M  V30 48 1 24 45
M  V30 49 1 25 46 CFG=1
M  V30 50 1 28 47
M  V30 END BOND
M  V30 END CTAB
M  END
>  <Dataset>  (707) 
OralDrugs

>  <Ligand_Instance>  (707) 
nan

>  <PDB_ID>  (707) 
nan

>  <Standardized_SMILES>  (707) 
Cc1onc(-c2ccccc2)c1C(=O)N[C@@H]1C(=O)N2[C@@H]1SC(C)(C)[C@@H]2C(=O)O

>  <Name>  (707) 
Oxacillin

>  <Pocket>  (707) 
nan

>  <ATP_Site>  (707) 
nan

>  <Peripheral>  (707) 
nan

>  <Num_H_Atoms_ProtBoundConf>  (707) 
nan

>  <Num_Resolved_Atoms>  (707) 
nan

>  <Num_Not_Resolved_Atoms>  (707) 
nan

$$$$
CHEMBL847
     RDKit          3D

  0  0  0  0  0  0  0  0  0  0999 V3000
M  V30 BEGIN CTAB
M  V30 COUNTS 41 42 0 0 0
M  V30 BEGIN ATOM
M  V30 1 C -1.646146 -2.642022 2.939691 0
M  V30 2 C -1.273308 -3.724272 1.956078 0
M  V30 3 C -2.527857 -4.230263 1.323525 0
M  V30 4 N -0.339138 -3.337978 0.974970 0
M  V30 5 C -0.654951 -2.286075 0.095179 0
M  V30 6 C 0.469871 -1.963080 -0.903526 0
M  V30 7 C -0.047181 -0.823041 -1.751111 0
M  V30 8 C 0.927350 0.293245 -1.940663 0
M  V30 9 C 1.334751 0.876207 -0.646052 0
M  V30 10 C 1.420480 2.201248 -0.318115 0
M  V30 11 C 1.826575 2.546479 0.951708 0
M  V30 12 C 1.918313 3.966635 1.312977 0
M  V30 13 O 0.853085 4.381783 2.107513 0
M  V30 14 C 2.142405 1.571863 1.879618 0
M  V30 15 N 2.565295 1.901112 3.194502 0 CHG=1 VAL=4
M  V30 16 O 3.186849 2.796216 3.761767 0
M  V30 17 O 2.230290 1.014677 4.214534 0 CHG=-1 VAL=1
M  V30 18 C 2.067161 0.219874 1.582428 0
M  V30 19 C 1.657716 -0.091531 0.304752 0
M  V30 20 N 1.561209 -1.477224 -0.043888 0
M  V30 21 H -0.747810 -2.105480 3.341159 0
M  V30 22 H -2.076636 -3.164092 3.828169 0
M  V30 23 H -2.417845 -1.949153 2.581122 0
M  V30 24 H -0.849406 -4.563509 2.551443 0
M  V30 25 H -3.334796 -4.424304 2.056595 0
M  V30 26 H -2.919578 -3.538575 0.546832 0
M  V30 27 H -2.277708 -5.218892 0.835087 0
M  V30 28 H 0.606092 -3.706382 1.003699 0
M  V30 29 H -1.503337 -2.601125 -0.567739 0
M  V30 30 H -0.866800 -1.300278 0.564425 0
M  V30 31 H 0.768472 -2.840826 -1.489208 0
M  V30 32 H -0.374309 -1.221321 -2.733488 0
M  V30 33 H -0.972677 -0.352898 -1.308855 0
M  V30 34 H 0.383016 1.095507 -2.491462 0
M  V30 35 H 1.794812 -0.018961 -2.557261 0
M  V30 36 H 1.156440 2.894942 -1.099049 0
M  V30 37 H 2.840836 4.163962 1.899046 0
M  V30 38 H 1.943226 4.590948 0.399617 0
M  V30 39 H 0.088463 4.593457 1.514794 0
M  V30 40 H 2.323524 -0.524502 2.327002 0
M  V30 41 H 2.316083 -2.098420 0.357268 0
M  V30 END ATOM
M  V30 BEGIN BOND
M  V30 1 1 1 2
M  V30 2 1 2 3
M  V30 3 1 2 4
M  V30 4 1 4 5
M  V30 5 1 5 6
M  V30 6 1 6 7
M  V30 7 1 7 8
M  V30 8 1 8 9
M  V30 9 2 9 10
M  V30 10 1 10 11
M  V30 11 1 11 12
M  V30 12 1 12 13
M  V30 13 2 11 14
M  V30 14 1 14 15
M  V30 15 2 15 16
M  V30 16 1 15 17
M  V30 17 1 14 18
M  V30 18 2 18 19
M  V30 19 1 19 20
M  V30 20 1 20 6
M  V30 21 1 19 9
M  V30 22 1 1 21
M  V30 23 1 1 22
M  V30 24 1 1 23
M  V30 25 1 2 24
M  V30 26 1 3 25
M  V30 27 1 3 26
M  V30 28 1 3 27
M  V30 29 1 4 28
M  V30 30 1 5 29
M  V30 31 1 5 30
M  V30 32 1 6 31
M  V30 33 1 7 32
M  V30 34 1 7 33
M  V30 35 1 8 34
M  V30 36 1 8 35
M  V30 37 1 10 36
M  V30 38 1 12 37
M  V30 39 1 12 38
M  V30 40 1 13 39
M  V30 41 1 18 40
M  V30 42 1 20 41
M  V30 END BOND
M  V30 END CTAB
M  END
>  <Dataset>  (708) 
OralDrugs

>  <Ligand_Instance>  (708) 
nan

>  <PDB_ID>  (708) 
nan

>  <Standardized_SMILES>  (708) 
CC(C)NCC1CCc2cc(CO)c([N+](=O)[O-])cc2N1

>  <Name>  (708) 
Oxamniquine

>  <Pocket>  (708) 
nan

>  <ATP_Site>  (708) 
nan

>  <Peripheral>  (708) 
nan

>  <Num_H_Atoms_ProtBoundConf>  (708) 
nan

>  <Num_Resolved_Atoms>  (708) 
nan

>  <Num_Not_Resolved_Atoms>  (708) 
nan

$$$$
CHEMBL1200436
     RDKit          3D

  0  0  0  0  0  0  0  0  0  0999 V3000
M  V30 BEGIN CTAB
M  V30 COUNTS 52 55 0 0 0
M  V30 BEGIN ATOM
M  V30 1 C 2.966908 -1.009976 1.142403 0
M  V30 2 C 1.965020 -1.523868 0.116480 0 CFG=2
M  V30 3 C 2.211697 -3.024592 0.042654 0
M  V30 4 O 3.442276 -3.328432 -0.578571 0
M  V30 5 C 3.997274 -2.603134 -1.603201 0
M  V30 6 O 4.739898 -3.150996 -2.475507 0
M  V30 7 C 3.680319 -1.153091 -1.630374 0
M  V30 8 C 2.251275 -0.989867 -1.253203 0 CFG=2
M  V30 9 C 1.738929 0.423791 -1.473342 0
M  V30 10 C 0.215594 0.297940 -1.345180 0
M  V30 11 C -0.049361 -0.014657 0.107796 0 CFG=2
M  V30 12 C 0.563583 -1.327888 0.554076 0 CFG=2
M  V30 13 C 0.452788 -1.323814 2.067203 0
M  V30 14 C -0.966359 -1.253704 2.530931 0
M  V30 15 C -1.700596 -0.115160 1.904554 0 CFG=1
M  V30 16 C -1.267296 1.202241 2.460385 0
M  V30 17 C -1.511860 -0.192727 0.394686 0 CFG=1
M  V30 18 C -2.410605 0.887053 -0.067596 0
M  V30 19 C -3.607492 0.775723 0.870279 0
M  V30 20 C -3.184081 -0.189518 1.980246 0 CFG=1
M  V30 21 C -3.772950 -1.529720 1.684627 0
M  V30 22 O -3.670997 0.347225 3.168245 0
M  V30 23 H 3.978327 -1.356273 0.816064 0
M  V30 24 H 2.970963 0.078468 1.219975 0
M  V30 25 H 2.762375 -1.514086 2.106439 0
M  V30 26 H 1.415087 -3.548252 -0.518484 0
M  V30 27 H 2.216706 -3.486344 1.048470 0
M  V30 28 H 3.799985 -0.737707 -2.671045 0
M  V30 29 H 4.381193 -0.561767 -1.019115 0
M  V30 30 H 1.658997 -1.631727 -1.965510 0
M  V30 31 H 2.033885 0.736370 -2.474419 0
M  V30 32 H 2.068423 1.122422 -0.666416 0
M  V30 33 H -0.138974 -0.495350 -2.007901 0
M  V30 34 H -0.190511 1.285749 -1.549027 0
M  V30 35 H 0.443128 0.767957 0.718861 0
M  V30 36 H -0.099761 -2.158724 0.218163 0
M  V30 37 H 0.896778 -2.244020 2.524493 0
M  V30 38 H 1.019508 -0.416506 2.402964 0
M  V30 39 H -1.450125 -2.230367 2.413771 0
M  V30 40 H -0.939723 -1.056190 3.634877 0
M  V30 41 H -2.087942 1.734288 3.013300 0
M  V30 42 H -0.488917 1.010326 3.244629 0
M  V30 43 H -0.911374 1.926914 1.710808 0
M  V30 44 H -1.799341 -1.182329 0.044835 0
M  V30 45 H -2.718859 0.675945 -1.123333 0
M  V30 46 H -1.946544 1.882282 -0.047434 0
M  V30 47 H -4.451198 0.372032 0.288610 0
M  V30 48 H -3.775864 1.790093 1.269666 0
M  V30 49 H -3.096392 -2.247763 1.209150 0
M  V30 50 H -4.637461 -1.415342 0.982649 0
M  V30 51 H -4.177370 -2.005880 2.601605 0
M  V30 52 H -3.454624 -0.193595 3.959453 0
M  V30 END ATOM
M  V30 BEGIN BOND
M  V30 1 1 2 1 CFG=1
M  V30 2 1 2 3
M  V30 3 1 3 4
M  V30 4 1 4 5
M  V30 5 2 5 6
M  V30 6 1 5 7
M  V30 7 1 7 8
M  V30 8 1 8 9
M  V30 9 1 9 10
M  V30 10 1 10 11
M  V30 11 1 11 12
M  V30 12 1 12 13
M  V30 13 1 13 14
M  V30 14 1 14 15
M  V30 15 1 15 16 CFG=1
M  V30 16 1 15 17
M  V30 17 1 17 18
M  V30 18 1 18 19
M  V30 19 1 19 20
M  V30 20 1 20 21
M  V30 21 1 20 22 CFG=1
M  V30 22 1 8 2
M  V30 23 1 17 11
M  V30 24 1 12 2
M  V30 25 1 20 15
M  V30 26 1 1 23
M  V30 27 1 1 24
M  V30 28 1 1 25
M  V30 29 1 3 26
M  V30 30 1 3 27
M  V30 31 1 7 28
M  V30 32 1 7 29
M  V30 33 1 8 30 CFG=3
M  V30 34 1 9 31
M  V30 35 1 9 32
M  V30 36 1 10 33
M  V30 37 1 10 34
M  V30 38 1 11 35 CFG=1
M  V30 39 1 12 36 CFG=3
M  V30 40 1 13 37
M  V30 41 1 13 38
M  V30 42 1 14 39
M  V30 43 1 14 40
M  V30 44 1 16 41
M  V30 45 1 16 42
M  V30 46 1 16 43
M  V30 47 1 17 44 CFG=3
M  V30 48 1 18 45
M  V30 49 1 18 46
M  V30 50 1 19 47
M  V30 51 1 19 48
M  V30 52 1 21 49
M  V30 53 1 21 50
M  V30 54 1 21 51
M  V30 55 1 22 52
M  V30 END BOND
M  V30 END CTAB
M  END
>  <Dataset>  (709) 
OralDrugs

>  <Ligand_Instance>  (709) 
nan

>  <PDB_ID>  (709) 
nan

>  <Standardized_SMILES>  (709) 
C[C@]12COC(=O)C[C@@H]1CC[C@@H]1[C@@H]2CC[C@@]2(C)[C@H]1CC[C@]2(C)O

>  <Name>  (709) 
Oxandrolone

>  <Pocket>  (709) 
nan

>  <ATP_Site>  (709) 
nan

>  <Peripheral>  (709) 
nan

>  <Num_H_Atoms_ProtBoundConf>  (709) 
nan

>  <Num_Resolved_Atoms>  (709) 
nan

>  <Num_Not_Resolved_Atoms>  (709) 
nan

$$$$
CHEMBL1071
     RDKit          3D

  0  0  0  0  0  0  0  0  0  0999 V3000
M  V30 BEGIN CTAB
M  V30 COUNTS 37 39 0 0 0
M  V30 BEGIN ATOM
M  V30 1 O -0.445523 -3.830006 4.727666 0
M  V30 2 C -0.214563 -3.994428 3.483843 0
M  V30 3 O -1.295123 -3.904754 2.617803 0
M  V30 4 C 1.221005 -4.262905 3.165266 0
M  V30 5 C 2.035579 -2.985280 3.216648 0
M  V30 6 C 1.491680 -2.009756 2.215276 0
M  V30 7 N 2.016212 -0.768965 2.026605 0
M  V30 8 C 1.285899 -0.155721 1.050584 0
M  V30 9 C 1.431599 1.175540 0.474659 0
M  V30 10 C 1.730080 1.075110 -0.886496 0
M  V30 11 C 1.915820 2.229288 -1.655584 0
M  V30 12 C 1.795443 3.463975 -1.030167 0
M  V30 13 C 1.501458 3.550683 0.309202 0
M  V30 14 C 1.316833 2.411989 1.074025 0
M  V30 15 C 0.306568 -1.077643 0.664838 0
M  V30 16 C -0.726760 -0.900099 -0.350516 0
M  V30 17 C -1.602958 0.128172 -0.017062 0
M  V30 18 C -2.670576 0.475721 -0.842892 0
M  V30 19 C -2.827669 -0.241456 -2.009739 0
M  V30 20 C -1.969041 -1.263282 -2.355446 0
M  V30 21 C -0.914856 -1.599545 -1.530887 0
M  V30 22 O 0.493767 -2.167169 1.408364 0
M  V30 23 H -1.990722 -3.176513 2.813419 0
M  V30 24 H 1.659070 -4.985292 3.879731 0
M  V30 25 H 1.263281 -4.627378 2.117154 0
M  V30 26 H 2.094455 -2.552734 4.228259 0
M  V30 27 H 3.074251 -3.298135 2.901736 0
M  V30 28 H 1.846857 0.176303 -1.474143 0
M  V30 29 H 2.149072 2.206081 -2.717012 0
M  V30 30 H 1.936687 4.385117 -1.611219 0
M  V30 31 H 1.395914 4.494327 0.847939 0
M  V30 32 H 1.083975 2.344776 2.126385 0
M  V30 33 H -1.550775 0.740373 0.878798 0
M  V30 34 H -3.361669 1.260382 -0.615948 0
M  V30 35 H -3.639346 -0.040826 -2.723393 0
M  V30 36 H -2.059688 -1.859931 -3.277066 0
M  V30 37 H -0.178587 -2.372443 -1.687659 0
M  V30 END ATOM
M  V30 BEGIN BOND
M  V30 1 2 1 2
M  V30 2 1 2 3
M  V30 3 1 2 4
M  V30 4 1 4 5
M  V30 5 1 5 6
M  V30 6 2 6 7
M  V30 7 1 7 8
M  V30 8 1 8 9
M  V30 9 2 9 10
M  V30 10 1 10 11
M  V30 11 2 11 12
M  V30 12 1 12 13
M  V30 13 2 13 14
M  V30 14 2 8 15
M  V30 15 1 15 16
M  V30 16 2 16 17
M  V30 17 1 17 18
M  V30 18 2 18 19
M  V30 19 1 19 20
M  V30 20 2 20 21
M  V30 21 1 15 22
M  V30 22 1 22 6
M  V30 23 1 14 9
M  V30 24 1 21 16
M  V30 25 1 3 23
M  V30 26 1 4 24
M  V30 27 1 4 25
M  V30 28 1 5 26
M  V30 29 1 5 27
M  V30 30 1 10 28
M  V30 31 1 11 29
M  V30 32 1 12 30
M  V30 33 1 13 31
M  V30 34 1 14 32
M  V30 35 1 17 33
M  V30 36 1 18 34
M  V30 37 1 19 35
M  V30 38 1 20 36
M  V30 39 1 21 37
M  V30 END BOND
M  V30 END CTAB
M  END
>  <Dataset>  (710) 
OralDrugs

>  <Ligand_Instance>  (710) 
nan

>  <PDB_ID>  (710) 
nan

>  <Standardized_SMILES>  (710) 
O=C(O)CCc1nc(-c2ccccc2)c(-c2ccccc2)o1

>  <Name>  (710) 
Oxaprozin

>  <Pocket>  (710) 
nan

>  <ATP_Site>  (710) 
nan

>  <Peripheral>  (710) 
nan

>  <Num_H_Atoms_ProtBoundConf>  (710) 
nan

>  <Num_Resolved_Atoms>  (710) 
nan

>  <Num_Not_Resolved_Atoms>  (710) 
nan

$$$$
CHEMBL568
     RDKit          3D

  0  0  0  0  0  0  0  0  0  0999 V3000
M  V30 BEGIN CTAB
M  V30 COUNTS 31 33 0 0 0
M  V30 BEGIN ATOM
M  V30 1 O -1.482116 -4.689683 1.172169 0
M  V30 2 C -0.810501 -3.719444 0.698966 0
M  V30 3 N 0.425270 -3.612141 1.444052 0
M  V30 4 C 1.383496 -2.562631 1.165574 0
M  V30 5 C 2.717663 -2.885714 1.387476 0
M  V30 6 C 3.661847 -1.933219 1.074945 0
M  V30 7 C 3.327779 -0.699233 0.559812 0
M  V30 8 Cl 4.546438 0.486000 0.174440 0
M  V30 9 C 2.030075 -0.323203 0.319442 0
M  V30 10 C 1.078639 -1.298220 0.644410 0
M  V30 11 C -0.256799 -0.757826 0.388929 0
M  V30 12 C -0.530461 0.637241 0.663901 0
M  V30 13 C -1.778123 1.084073 0.199779 0
M  V30 14 C -2.288786 2.350499 0.404528 0
M  V30 15 C -1.548891 3.269127 1.111058 0
M  V30 16 C -0.324608 2.888875 1.589277 0
M  V30 17 C 0.105559 1.630620 1.348251 0
M  V30 18 N -1.259499 -1.444190 -0.084263 0
M  V30 19 C -1.297738 -2.867878 -0.455927 0
M  V30 20 O -2.564822 -3.217023 -0.815751 0
M  V30 21 H 0.749191 -4.234497 2.202732 0
M  V30 22 H 2.850651 -3.874020 1.790150 0
M  V30 23 H 4.686990 -2.220704 1.262012 0
M  V30 24 H 1.704259 0.604947 -0.115991 0
M  V30 25 H -2.472130 0.464826 -0.374977 0
M  V30 26 H -3.250120 2.683919 0.042849 0
M  V30 27 H -1.879434 4.276841 1.310971 0
M  V30 28 H 0.287780 3.561430 2.142297 0
M  V30 29 H 1.044624 1.326069 1.780654 0
M  V30 30 H -0.568026 -3.017344 -1.271476 0
M  V30 31 H -3.133570 -2.431806 -0.844825 0
M  V30 END ATOM
M  V30 BEGIN BOND
M  V30 1 2 1 2
M  V30 2 1 2 3
M  V30 3 1 3 4
M  V30 4 2 4 5
M  V30 5 1 5 6
M  V30 6 2 6 7
M  V30 7 1 7 8
M  V30 8 1 7 9
M  V30 9 2 9 10
M  V30 10 1 10 11
M  V30 11 1 11 12
M  V30 12 2 12 13
M  V30 13 1 13 14
M  V30 14 2 14 15
M  V30 15 1 15 16
M  V30 16 2 16 17
M  V30 17 2 11 18
M  V30 18 1 18 19
M  V30 19 1 19 20
M  V30 20 1 19 2
M  V30 21 1 10 4
M  V30 22 1 17 12
M  V30 23 1 3 21
M  V30 24 1 5 22
M  V30 25 1 6 23
M  V30 26 1 9 24
M  V30 27 1 13 25
M  V30 28 1 14 26
M  V30 29 1 15 27
M  V30 30 1 16 28
M  V30 31 1 17 29
M  V30 32 1 19 30
M  V30 33 1 20 31
M  V30 END BOND
M  V30 END CTAB
M  END
>  <Dataset>  (711) 
OralDrugs

>  <Ligand_Instance>  (711) 
nan

>  <PDB_ID>  (711) 
nan

>  <Standardized_SMILES>  (711) 
O=C1Nc2ccc(Cl)cc2C(c2ccccc2)=NC1O

>  <Name>  (711) 
Oxazepam

>  <Pocket>  (711) 
nan

>  <ATP_Site>  (711) 
nan

>  <Peripheral>  (711) 
nan

>  <Num_H_Atoms_ProtBoundConf>  (711) 
nan

>  <Num_Resolved_Atoms>  (711) 
nan

>  <Num_Not_Resolved_Atoms>  (711) 
nan

$$$$
CHEMBL546
     RDKit          3D

  0  0  0  0  0  0  0  0  0  0999 V3000
M  V30 BEGIN CTAB
M  V30 COUNTS 42 42 0 0 0
M  V30 BEGIN ATOM
M  V30 1 C -0.812430 -2.276453 3.936289 0
M  V30 2 C -0.696904 -3.507572 3.445802 0
M  V30 3 C -0.622897 -3.667097 1.955764 0
M  V30 4 O -0.693074 -2.420757 1.336761 0
M  V30 5 C -0.654156 -2.232003 -0.037265 0
M  V30 6 C -0.538136 -3.412958 -0.739895 0
M  V30 7 C -0.488183 -3.375970 -2.117667 0
M  V30 8 C -0.556509 -2.151222 -2.745544 0
M  V30 9 C -0.672116 -0.998050 -2.000228 0
M  V30 10 C -0.725442 -0.985580 -0.624412 0
M  V30 11 O -0.835864 0.045593 0.255614 0
M  V30 12 C -0.923359 1.397634 0.067297 0
M  V30 13 C 0.203880 2.121987 -0.597456 0
M  V30 14 O -0.366181 3.476718 -0.706400 0
M  V30 15 C 1.430103 2.331454 0.229619 0
M  V30 16 N 2.320042 1.328864 0.548412 0
M  V30 17 C 2.126770 0.261314 1.406983 0
M  V30 18 C 1.606813 0.644690 2.789790 0
M  V30 19 C 3.532395 -0.395048 1.678468 0
M  V30 20 H -0.899765 -1.611861 4.807604 0
M  V30 21 H -0.854470 -1.405930 3.291981 0
M  V30 22 H -0.660647 -4.336563 4.133320 0
M  V30 23 H -1.392930 -4.379856 1.605123 0
M  V30 24 H 0.365140 -4.116682 1.728840 0
M  V30 25 H -0.480546 -4.398154 -0.311161 0
M  V30 26 H -0.399565 -4.201809 -2.811840 0
M  V30 27 H -0.524414 -2.027362 -3.828883 0
M  V30 28 H -0.733274 -0.026582 -2.468650 0
M  V30 29 H -0.999390 1.865416 1.103862 0
M  V30 30 H -1.889044 1.726602 -0.405868 0
M  V30 31 H 0.475565 1.801417 -1.595461 0
M  V30 32 H -0.530496 3.750143 0.237900 0
M  V30 33 H 1.135056 2.959805 1.168766 0
M  V30 34 H 2.044410 3.151361 -0.312956 0
M  V30 35 H 3.208703 1.371172 0.021317 0
M  V30 36 H 1.543565 -0.563447 1.040074 0
M  V30 37 H 0.739353 1.308030 2.650559 0
M  V30 38 H 1.251081 -0.266237 3.313815 0
M  V30 39 H 2.430025 1.104151 3.401365 0
M  V30 40 H 3.888578 -0.735938 0.685356 0
M  V30 41 H 4.188875 0.332202 2.179005 0
M  V30 42 H 3.324329 -1.277969 2.315709 0
M  V30 END ATOM
M  V30 BEGIN BOND
M  V30 1 2 1 2
M  V30 2 1 2 3
M  V30 3 1 3 4
M  V30 4 1 4 5
M  V30 5 2 5 6
M  V30 6 1 6 7
M  V30 7 2 7 8
M  V30 8 1 8 9
M  V30 9 2 9 10
M  V30 10 1 10 11
M  V30 11 1 11 12
M  V30 12 1 12 13
M  V30 13 1 13 14
M  V30 14 1 13 15
M  V30 15 1 15 16
M  V30 16 1 16 17
M  V30 17 1 17 18
M  V30 18 1 17 19
M  V30 19 1 10 5
M  V30 20 1 1 20
M  V30 21 1 1 21
M  V30 22 1 2 22
M  V30 23 1 3 23
M  V30 24 1 3 24
M  V30 25 1 6 25
M  V30 26 1 7 26
M  V30 27 1 8 27
M  V30 28 1 9 28
M  V30 29 1 12 29
M  V30 30 1 12 30
M  V30 31 1 13 31
M  V30 32 1 14 32
M  V30 33 1 15 33
M  V30 34 1 15 34
M  V30 35 1 16 35
M  V30 36 1 17 36
M  V30 37 1 18 37
M  V30 38 1 18 38
M  V30 39 1 18 39
M  V30 40 1 19 40
M  V30 41 1 19 41
M  V30 42 1 19 42
M  V30 END BOND
M  V30 END CTAB
M  END
>  <Dataset>  (712) 
OralDrugs

>  <Ligand_Instance>  (712) 
nan

>  <PDB_ID>  (712) 
nan

>  <Standardized_SMILES>  (712) 
C=CCOc1ccccc1OCC(O)CNC(C)C

>  <Name>  (712) 
Oxprenolol

>  <Pocket>  (712) 
nan

>  <ATP_Site>  (712) 
nan

>  <Peripheral>  (712) 
nan

>  <Num_H_Atoms_ProtBoundConf>  (712) 
nan

>  <Num_Resolved_Atoms>  (712) 
nan

>  <Num_Not_Resolved_Atoms>  (712) 
nan

$$$$
CHEMBL1200434
     RDKit          3D

  0  0  0  0  0  0  0  0  0  0999 V3000
M  V30 BEGIN CTAB
M  V30 COUNTS 21 20 0 0 0
M  V30 BEGIN ATOM
M  V30 1 C 0.109956 1.046567 2.342927 0
M  V30 2 N 0.493718 0.432855 1.062851 0 CHG=1 VAL=4
M  V30 3 C -0.408300 0.884927 0.071220 0
M  V30 4 C 1.802212 1.045190 0.775534 0
M  V30 5 C 0.653243 -0.945938 1.256908 0
M  V30 6 C 0.520015 -1.831276 0.068054 0
M  V30 7 O 1.454609 -1.532726 -0.923640 0
M  V30 8 H 0.907101 0.930087 3.080770 0
M  V30 9 H -0.104384 2.107897 2.097484 0
M  V30 10 H -0.828862 0.529944 2.641655 0
M  V30 11 H 0.121414 1.105169 -0.901194 0
M  V30 12 H -0.808289 1.877871 0.371777 0
M  V30 13 H -1.297911 0.261066 -0.097220 0
M  V30 14 H 1.722775 2.138273 0.920473 0
M  V30 15 H 2.171628 0.739934 -0.203248 0
M  V30 16 H 2.515892 0.650449 1.542347 0
M  V30 17 H -0.011249 -1.330641 2.059173 0
M  V30 18 H 1.698855 -1.121319 1.648753 0
M  V30 19 H 0.746167 -2.871442 0.386099 0
M  V30 20 H -0.469177 -1.854108 -0.393229 0
M  V30 21 H 1.058427 -0.977616 -1.638939 0
M  V30 END ATOM
M  V30 BEGIN BOND
M  V30 1 1 1 2
M  V30 2 1 2 3
M  V30 3 1 2 4
M  V30 4 1 2 5
M  V30 5 1 5 6
M  V30 6 1 6 7
M  V30 7 1 1 8
M  V30 8 1 1 9
M  V30 9 1 1 10
M  V30 10 1 3 11
M  V30 11 1 3 12
M  V30 12 1 3 13
M  V30 13 1 4 14
M  V30 14 1 4 15
M  V30 15 1 4 16
M  V30 16 1 5 17
M  V30 17 1 5 18
M  V30 18 1 6 19
M  V30 19 1 6 20
M  V30 20 1 7 21
M  V30 END BOND
M  V30 END CTAB
M  END
>  <Dataset>  (713) 
OralDrugs

>  <Ligand_Instance>  (713) 
nan

>  <PDB_ID>  (713) 
nan

>  <Standardized_SMILES>  (713) 
C[N+](C)(C)CCO

>  <Name>  (713) 
Oxtriphylline

>  <Pocket>  (713) 
nan

>  <ATP_Site>  (713) 
nan

>  <Peripheral>  (713) 
nan

>  <Num_H_Atoms_ProtBoundConf>  (713) 
nan

>  <Num_Resolved_Atoms>  (713) 
nan

>  <Num_Not_Resolved_Atoms>  (713) 
nan

$$$$
CHEMBL1231
     RDKit          3D

  0  0  0  0  0  0  0  0  0  0999 V3000
M  V30 BEGIN CTAB
M  V30 COUNTS 57 58 0 0 0
M  V30 BEGIN ATOM
M  V30 1 C 2.117299 -2.099062 4.583906 0
M  V30 2 C 3.061882 -2.429356 3.455293 0
M  V30 3 N 4.027297 -1.343595 3.243065 0
M  V30 4 C 4.894848 -1.791767 2.153512 0
M  V30 5 C 5.948709 -0.744133 1.844581 0
M  V30 6 C 3.312043 -0.132659 2.849842 0
M  V30 7 C 2.730548 -0.331081 1.502598 0
M  V30 8 C 2.268292 -0.510380 0.405218 0
M  V30 9 C 1.697758 -0.757172 -0.943859 0
M  V30 10 O 0.282786 -0.824144 -0.873426 0
M  V30 11 C -0.483934 0.238464 -0.419597 0
M  V30 12 O 0.116763 1.308040 -0.056396 0
M  V30 13 C -1.962973 0.246947 -0.315177 0
M  V30 14 O -2.264504 1.553136 0.181770 0
M  V30 15 C -2.477944 -0.662274 0.729569 0
M  V30 16 C -2.037528 -1.942919 0.978108 0
M  V30 17 C -2.571876 -2.738637 1.967820 0
M  V30 18 C -3.591919 -2.288890 2.775594 0
M  V30 19 C -4.086234 -1.019878 2.589794 0
M  V30 20 C -3.515114 -0.269022 1.586562 0
M  V30 21 C -2.693192 0.084673 -1.601371 0
M  V30 22 C -2.405202 -1.175778 -2.325372 0
M  V30 23 C -2.008137 -0.973243 -3.770951 0
M  V30 24 C -3.035057 -0.130040 -4.440517 0
M  V30 25 C -3.263178 1.194771 -3.777808 0
M  V30 26 C -2.570292 1.324453 -2.448330 0
M  V30 27 H 1.626157 -3.061262 4.877384 0
M  V30 28 H 2.719495 -1.715512 5.448075 0
M  V30 29 H 1.320483 -1.420676 4.266369 0
M  V30 30 H 2.453234 -2.576152 2.517674 0
M  V30 31 H 3.608731 -3.343241 3.688963 0
M  V30 32 H 5.433284 -2.686797 2.533329 0
M  V30 33 H 4.344142 -2.091494 1.251740 0
M  V30 34 H 5.514668 0.148007 1.351649 0
M  V30 35 H 6.722221 -1.168531 1.173392 0
M  V30 36 H 6.466226 -0.481057 2.785090 0
M  V30 37 H 2.541523 0.070590 3.618893 0
M  V30 38 H 3.968263 0.731848 2.775039 0
M  V30 39 H 2.072082 0.017531 -1.611009 0
M  V30 40 H 2.124961 -1.724310 -1.263232 0
M  V30 41 H -1.859014 1.624818 1.083922 0
M  V30 42 H -1.245323 -2.346182 0.388455 0
M  V30 43 H -2.170281 -3.750341 2.108704 0
M  V30 44 H -4.009681 -2.914984 3.550534 0
M  V30 45 H -4.884750 -0.589381 3.179544 0
M  V30 46 H -3.907338 0.738580 1.438722 0
M  V30 47 H -3.787828 0.038477 -1.317957 0
M  V30 48 H -3.283469 -1.883657 -2.371495 0
M  V30 49 H -1.593573 -1.780335 -1.875966 0
M  V30 50 H -0.971377 -0.621355 -3.908913 0
M  V30 51 H -2.036375 -1.990993 -4.242173 0
M  V30 52 H -2.745894 -0.002313 -5.524633 0
M  V30 53 H -3.996863 -0.696648 -4.464767 0
M  V30 54 H -2.880305 1.985693 -4.454253 0
M  V30 55 H -4.353245 1.383156 -3.657513 0
M  V30 56 H -3.086435 2.146115 -1.909248 0
M  V30 57 H -1.532843 1.660199 -2.619656 0
M  V30 END ATOM
M  V30 BEGIN BOND
M  V30 1 1 1 2
M  V30 2 1 2 3
M  V30 3 1 3 4
M  V30 4 1 4 5
M  V30 5 1 3 6
M  V30 6 1 6 7
M  V30 7 3 7 8
M  V30 8 1 8 9
M  V30 9 1 9 10
M  V30 10 1 10 11
M  V30 11 2 11 12
M  V30 12 1 11 13
M  V30 13 1 13 14
M  V30 14 1 13 15
M  V30 15 2 15 16
M  V30 16 1 16 17
M  V30 17 2 17 18
M  V30 18 1 18 19
M  V30 19 2 19 20
M  V30 20 1 13 21
M  V30 21 1 21 22
M  V30 22 1 22 23
M  V30 23 1 23 24
M  V30 24 1 24 25
M  V30 25 1 25 26
M  V30 26 1 20 15
M  V30 27 1 26 21
M  V30 28 1 1 27
M  V30 29 1 1 28
M  V30 30 1 1 29
M  V30 31 1 2 30
M  V30 32 1 2 31
M  V30 33 1 4 32
M  V30 34 1 4 33
M  V30 35 1 5 34
M  V30 36 1 5 35
M  V30 37 1 5 36
M  V30 38 1 6 37
M  V30 39 1 6 38
M  V30 40 1 9 39
M  V30 41 1 9 40
M  V30 42 1 14 41
M  V30 43 1 16 42
M  V30 44 1 17 43
M  V30 45 1 18 44
M  V30 46 1 19 45
M  V30 47 1 20 46
M  V30 48 1 21 47
M  V30 49 1 22 48
M  V30 50 1 22 49
M  V30 51 1 23 50
M  V30 52 1 23 51
M  V30 53 1 24 52
M  V30 54 1 24 53
M  V30 55 1 25 54
M  V30 56 1 25 55
M  V30 57 1 26 56
M  V30 58 1 26 57
M  V30 END BOND
M  V30 END CTAB
M  END
>  <Dataset>  (714) 
OralDrugs

>  <Ligand_Instance>  (714) 
nan

>  <PDB_ID>  (714) 
nan

>  <Standardized_SMILES>  (714) 
CCN(CC)CC#CCOC(=O)C(O)(c1ccccc1)C1CCCCC1

>  <Name>  (714) 
Oxybutynin

>  <Pocket>  (714) 
nan

>  <ATP_Site>  (714) 
nan

>  <Peripheral>  (714) 
nan

>  <Num_H_Atoms_ProtBoundConf>  (714) 
nan

>  <Num_Resolved_Atoms>  (714) 
nan

>  <Num_Not_Resolved_Atoms>  (714) 
nan

$$$$
CHEMBL3989826
     RDKit          3D

  0  0  0  0  0  0  0  0  0  0999 V3000
M  V30 BEGIN CTAB
M  V30 COUNTS 44 48 0 0 0
M  V30 BEGIN ATOM
M  V30 1 C 2.076255 -5.142990 -1.525785 0
M  V30 2 O 2.185812 -3.737460 -1.406745 0
M  V30 3 C 1.384695 -3.055626 -0.500299 0
M  V30 4 C 0.459995 -3.684761 0.316371 0
M  V30 5 C -0.329600 -2.957394 1.218585 0
M  V30 6 C -0.205696 -1.596864 1.316212 0
M  V30 7 C 0.730482 -1.042614 0.476657 0
M  V30 8 C 1.558533 -1.686656 -0.451054 0
M  V30 9 O 2.346978 -0.691587 -1.075005 0
M  V30 10 C 1.650592 0.565439 -0.870604 0 CFG=1
M  V30 11 C 0.693288 0.718313 -1.971843 0
M  V30 12 O 1.004026 0.264339 -3.068110 0
M  V30 13 C -0.595176 1.395432 -1.759395 0
M  V30 14 C -1.282299 0.946273 -0.495251 0
M  V30 15 C -0.314811 1.094425 0.646106 0 CFG=1
M  V30 16 O -0.057766 2.460035 0.776061 0
M  V30 17 C -0.932685 0.687918 1.969871 0 CFG=1
M  V30 18 C -1.010706 -0.761579 2.239877 0
M  V30 19 N -0.069266 1.301446 2.936661 0
M  V30 20 C -0.624973 1.670171 4.157792 0
M  V30 21 C 1.266566 0.807405 2.924354 0
M  V30 22 C 1.922913 0.838697 1.591248 0
M  V30 23 C 0.993770 0.414656 0.461998 0 CFG=1
M  V30 24 H 2.133347 -5.591263 -0.508912 0
M  V30 25 H 1.050382 -5.392649 -1.896928 0
M  V30 26 H 2.865609 -5.552387 -2.161060 0
M  V30 27 H 0.367129 -4.774008 0.232160 0
M  V30 28 H -1.043633 -3.478599 1.843221 0
M  V30 29 H 2.459103 1.322678 -0.912073 0
M  V30 30 H -0.504561 2.498529 -1.828045 0
M  V30 31 H -1.266687 1.128055 -2.627070 0
M  V30 32 H -2.095070 1.702558 -0.299002 0
M  V30 33 H -1.695118 -0.058430 -0.602173 0
M  V30 34 H -0.854896 3.026125 0.772207 0
M  V30 35 H -1.928632 1.155860 2.056385 0
M  V30 36 H -2.072843 -1.113720 2.277923 0
M  V30 37 H -0.620789 -0.985629 3.266853 0
M  V30 38 H -0.868625 2.764823 4.120880 0
M  V30 39 H -0.000131 1.527489 5.060181 0
M  V30 40 H -1.620884 1.163293 4.295665 0
M  V30 41 H 1.863383 1.433851 3.628498 0
M  V30 42 H 1.272509 -0.227841 3.318072 0
M  V30 43 H 2.326685 1.837689 1.335952 0
M  V30 44 H 2.780682 0.135738 1.597153 0
M  V30 END ATOM
M  V30 BEGIN BOND
M  V30 1 1 1 2
M  V30 2 1 2 3
M  V30 3 2 3 4
M  V30 4 1 4 5
M  V30 5 2 5 6
M  V30 6 1 6 7
M  V30 7 2 7 8
M  V30 8 1 8 9
M  V30 9 1 9 10
M  V30 10 1 10 11
M  V30 11 2 11 12
M  V30 12 1 11 13
M  V30 13 1 13 14
M  V30 14 1 14 15
M  V30 15 1 15 16 CFG=1
M  V30 16 1 15 17
M  V30 17 1 17 18
M  V30 18 1 17 19
M  V30 19 1 19 20
M  V30 20 1 19 21
M  V30 21 1 21 22
M  V30 22 1 23 22 CFG=1
M  V30 23 1 8 3
M  V30 24 1 23 10
M  V30 25 1 18 6
M  V30 26 1 23 7
M  V30 27 1 23 15
M  V30 28 1 1 24
M  V30 29 1 1 25
M  V30 30 1 1 26
M  V30 31 1 4 27
M  V30 32 1 5 28
M  V30 33 1 10 29 CFG=1
M  V30 34 1 13 30
M  V30 35 1 13 31
M  V30 36 1 14 32
M  V30 37 1 14 33
M  V30 38 1 16 34
M  V30 39 1 17 35 CFG=3
M  V30 40 1 18 36
M  V30 41 1 18 37
M  V30 42 1 20 38
M  V30 43 1 20 39
M  V30 44 1 20 40
M  V30 45 1 21 41
M  V30 46 1 21 42
M  V30 47 1 22 43
M  V30 48 1 22 44
M  V30 END BOND
M  V30 END CTAB
M  END
>  <Dataset>  (715) 
OralDrugs

>  <Ligand_Instance>  (715) 
nan

>  <PDB_ID>  (715) 
nan

>  <Standardized_SMILES>  (715) 
COc1ccc2c3c1O[C@H]1C(=O)CC[C@@]4(O)[C@@H](C2)N(C)CC[C@]314

>  <Name>  (715) 
Oxycodone Terephthalate

>  <Pocket>  (715) 
nan

>  <ATP_Site>  (715) 
nan

>  <Peripheral>  (715) 
nan

>  <Num_H_Atoms_ProtBoundConf>  (715) 
nan

>  <Num_Resolved_Atoms>  (715) 
nan

>  <Num_Not_Resolved_Atoms>  (715) 
nan

$$$$
CHEMBL1200585
     RDKit          3D

  0  0  0  0  0  0  0  0  0  0999 V3000
M  V30 BEGIN CTAB
M  V30 COUNTS 56 59 0 0 0
M  V30 BEGIN ATOM
M  V30 1 C 2.269719 0.017444 0.904869 0
M  V30 2 C 1.630565 -1.213390 0.347038 0 CFG=2
M  V30 3 C 2.128445 -2.422673 1.113787 0
M  V30 4 C 3.590967 -2.641052 0.909668 0
M  V30 5 C 4.320825 -3.277732 1.812364 0
M  V30 6 O 5.670942 -3.437245 1.543823 0
M  V30 7 C 4.197872 -2.143504 -0.294705 0
M  V30 8 O 5.428209 -2.173851 -0.507979 0
M  V30 9 C 3.418738 -1.550150 -1.390965 0
M  V30 10 C 1.951201 -1.439195 -1.106996 0 CFG=2
M  V30 11 C 1.374577 -0.308444 -1.932666 0
M  V30 12 C -0.136591 -0.509362 -1.893780 0
M  V30 13 C -0.545242 -0.232498 -0.479440 0 CFG=2
M  V30 14 C 0.148770 -1.164925 0.498736 0 CFG=2
M  V30 15 C -0.209046 -0.793846 1.905425 0
M  V30 16 C -1.697099 -0.690288 2.127181 0
M  V30 17 C -2.290400 0.229555 1.117775 0 CFG=1
M  V30 18 C -1.734259 1.621491 1.198685 0
M  V30 19 C -1.995186 -0.427946 -0.222059 0 CFG=1
M  V30 20 C -2.950388 0.232291 -1.122771 0
M  V30 21 C -4.230800 -0.004437 -0.319671 0
M  V30 22 C -3.771475 0.295413 1.104416 0 CFG=1
M  V30 23 C -4.451544 -0.585914 2.120368 0
M  V30 24 O -4.216277 1.607149 1.359379 0
M  V30 25 H 2.444840 -0.173305 1.993801 0
M  V30 26 H 3.265621 0.249143 0.468606 0
M  V30 27 H 1.578328 0.905547 0.864880 0
M  V30 28 H 1.635288 -3.348107 0.694837 0
M  V30 29 H 1.992726 -2.334433 2.211636 0
M  V30 30 H 3.820966 -3.634658 2.703675 0
M  V30 31 H 6.374283 -2.729400 1.702522 0
M  V30 32 H 3.895230 -0.604141 -1.724167 0
M  V30 33 H 3.501121 -2.252550 -2.271675 0
M  V30 34 H 1.399608 -2.357548 -1.422572 0
M  V30 35 H 1.781777 -0.403357 -2.959135 0
M  V30 36 H 1.567658 0.687493 -1.491334 0
M  V30 37 H -0.584303 0.262093 -2.533347 0
M  V30 38 H -0.383591 -1.553832 -2.197426 0
M  V30 39 H -0.282176 0.822808 -0.263801 0
M  V30 40 H -0.291776 -2.178310 0.300326 0
M  V30 41 H 0.106835 -1.645622 2.573979 0
M  V30 42 H 0.348554 0.075484 2.275355 0
M  V30 43 H -1.860148 -0.406084 3.183527 0
M  V30 44 H -2.094556 -1.719527 1.897757 0
M  V30 45 H -2.362957 2.174692 1.954373 0
M  V30 46 H -1.780526 2.191285 0.271653 0
M  V30 47 H -0.706698 1.682533 1.575062 0
M  V30 48 H -2.209109 -1.495269 -0.172671 0
M  V30 49 H -2.862110 1.319349 -1.222185 0
M  V30 50 H -3.023568 -0.178206 -2.138674 0
M  V30 51 H -4.461998 -1.090842 -0.376145 0
M  V30 52 H -5.054790 0.634562 -0.645703 0
M  V30 53 H -3.769515 -1.046396 2.848202 0
M  V30 54 H -5.019390 -1.434038 1.660325 0
M  V30 55 H -5.213341 -0.040764 2.732569 0
M  V30 56 H -5.031303 1.828643 0.836113 0
M  V30 END ATOM
M  V30 BEGIN BOND
M  V30 1 1 2 1 CFG=1
M  V30 2 1 2 3
M  V30 3 1 3 4
M  V30 4 2 4 5
M  V30 5 1 5 6
M  V30 6 1 4 7
M  V30 7 2 7 8
M  V30 8 1 7 9
M  V30 9 1 9 10
M  V30 10 1 10 11
M  V30 11 1 11 12
M  V30 12 1 12 13
M  V30 13 1 13 14
M  V30 14 1 14 15
M  V30 15 1 15 16
M  V30 16 1 16 17
M  V30 17 1 17 18 CFG=3
M  V30 18 1 17 19
M  V30 19 1 19 20
M  V30 20 1 20 21
M  V30 21 1 21 22
M  V30 22 1 22 23
M  V30 23 1 22 24 CFG=1
M  V30 24 1 10 2
M  V30 25 1 19 13
M  V30 26 1 14 2
M  V30 27 1 22 17
M  V30 28 1 1 25
M  V30 29 1 1 26
M  V30 30 1 1 27
M  V30 31 1 3 28
M  V30 32 1 3 29
M  V30 33 1 5 30
M  V30 34 1 6 31
M  V30 35 1 9 32
M  V30 36 1 9 33
M  V30 37 1 10 34 CFG=3
M  V30 38 1 11 35
M  V30 39 1 11 36
M  V30 40 1 12 37
M  V30 41 1 12 38
M  V30 42 1 13 39 CFG=1
M  V30 43 1 14 40 CFG=3
M  V30 44 1 15 41
M  V30 45 1 15 42
M  V30 46 1 16 43
M  V30 47 1 16 44
M  V30 48 1 18 45
M  V30 49 1 18 46
M  V30 50 1 18 47
M  V30 51 1 19 48 CFG=1
M  V30 52 1 20 49
M  V30 53 1 20 50
M  V30 54 1 21 51
M  V30 55 1 21 52
M  V30 56 1 23 53
M  V30 57 1 23 54
M  V30 58 1 23 55
M  V30 59 1 24 56
M  V30 END BOND
M  V30 END CTAB
M  END
>  <Dataset>  (716) 
OralDrugs

>  <Ligand_Instance>  (716) 
nan

>  <PDB_ID>  (716) 
nan

>  <Standardized_SMILES>  (716) 
C[C@]12C/C(=C/O)C(=O)C[C@@H]1CC[C@@H]1[C@@H]2CC[C@@]2(C)[C@H]1CC[C@]2(C)O

>  <Name>  (716) 
Oxymetholone

>  <Pocket>  (716) 
nan

>  <ATP_Site>  (716) 
nan

>  <Peripheral>  (716) 
nan

>  <Num_H_Atoms_ProtBoundConf>  (716) 
nan

>  <Num_Resolved_Atoms>  (716) 
nan

>  <Num_Not_Resolved_Atoms>  (716) 
nan

$$$$
CHEMBL963
     RDKit          3D

  0  0  0  0  0  0  0  0  0  0999 V3000
M  V30 BEGIN CTAB
M  V30 COUNTS 41 45 0 0 0
M  V30 BEGIN ATOM
M  V30 1 C 0.028633 -1.995015 4.002431 0
M  V30 2 N -0.381762 -0.786912 3.354063 0
M  V30 3 C -1.492060 -1.051007 2.491120 0
M  V30 4 C -1.143378 -1.798841 1.236744 0
M  V30 5 C 0.123627 -1.323336 0.606518 0 CFG=2
M  V30 6 C -0.174089 -0.033581 -0.085248 0
M  V30 7 C -0.158032 1.123645 0.630584 0
M  V30 8 C -0.451944 2.241455 -0.120681 0
M  V30 9 C -0.733752 2.143640 -1.489561 0
M  V30 10 C -0.721202 0.896210 -2.123330 0
M  V30 11 O -0.991652 0.720512 -3.482821 0
M  V30 12 C -0.432677 -0.251378 -1.413938 0
M  V30 13 O -0.310916 -1.636309 -1.618111 0
M  V30 14 C 0.475581 -2.197305 -0.569618 0 CFG=1
M  V30 15 C 1.918036 -2.103629 -0.834715 0
M  V30 16 O 2.441992 -3.125541 -1.243332 0
M  V30 17 C 2.541098 -0.777928 -0.569072 0
M  V30 18 C 2.356420 -0.329195 0.852335 0
M  V30 19 C 1.239789 -1.043856 1.550414 0 CFG=2
M  V30 20 O 1.756631 -2.164010 2.159767 0
M  V30 21 C 0.668590 -0.121742 2.618779 0 CFG=1
M  V30 22 C 0.152252 1.162092 2.072098 0
M  V30 23 H -0.128906 -2.899783 3.359990 0
M  V30 24 H 1.051018 -1.947378 4.426902 0
M  V30 25 H -0.655849 -2.154200 4.882419 0
M  V30 26 H -2.211431 -1.685930 3.087942 0
M  V30 27 H -2.044098 -0.119569 2.233290 0
M  V30 28 H -1.975351 -1.570490 0.507964 0
M  V30 29 H -1.182980 -2.899815 1.368640 0
M  V30 30 H -0.466173 3.221385 0.356236 0
M  V30 31 H -0.968221 3.022781 -2.095418 0
M  V30 32 H -0.243569 0.707884 -4.152406 0
M  V30 33 H 0.141818 -3.235087 -0.345612 0
M  V30 34 H 2.092810 -0.034826 -1.278970 0
M  V30 35 H 3.628008 -0.864542 -0.846115 0
M  V30 36 H 2.265667 0.776427 0.904040 0
M  V30 37 H 3.300059 -0.560118 1.392230 0
M  V30 38 H 2.672678 -1.928378 2.461285 0
M  V30 39 H 1.511740 0.081053 3.333097 0
M  V30 40 H 0.850445 2.001305 2.324568 0
M  V30 41 H -0.796016 1.445261 2.610571 0
M  V30 END ATOM
M  V30 BEGIN BOND
M  V30 1 1 1 2
M  V30 2 1 2 3
M  V30 3 1 3 4
M  V30 4 1 5 4 CFG=1
M  V30 5 1 5 6
M  V30 6 2 6 7
M  V30 7 1 7 8
M  V30 8 2 8 9
M  V30 9 1 9 10
M  V30 10 1 10 11
M  V30 11 2 10 12
M  V30 12 1 12 13
M  V30 13 1 13 14
M  V30 14 1 14 15
M  V30 15 2 15 16
M  V30 16 1 15 17
M  V30 17 1 17 18
M  V30 18 1 18 19
M  V30 19 1 19 20 CFG=1
M  V30 20 1 19 21
M  V30 21 1 21 22
M  V30 22 1 21 2
M  V30 23 1 14 5
M  V30 24 1 19 5
M  V30 25 1 12 6
M  V30 26 1 22 7
M  V30 27 1 1 23
M  V30 28 1 1 24
M  V30 29 1 1 25
M  V30 30 1 3 26
M  V30 31 1 3 27
M  V30 32 1 4 28
M  V30 33 1 4 29
M  V30 34 1 8 30
M  V30 35 1 9 31
M  V30 36 1 11 32
M  V30 37 1 14 33 CFG=1
M  V30 38 1 17 34
M  V30 39 1 17 35
M  V30 40 1 18 36
M  V30 41 1 18 37
M  V30 42 1 20 38
M  V30 43 1 21 39 CFG=1
M  V30 44 1 22 40
M  V30 45 1 22 41
M  V30 END BOND
M  V30 END CTAB
M  END
>  <Dataset>  (717) 
OralDrugs

>  <Ligand_Instance>  (717) 
nan

>  <PDB_ID>  (717) 
nan

>  <Standardized_SMILES>  (717) 
CN1CC[C@]23c4c5ccc(O)c4O[C@H]2C(=O)CC[C@@]3(O)[C@H]1C5

>  <Name>  (717) 
Oxymorphone

>  <Pocket>  (717) 
nan

>  <ATP_Site>  (717) 
nan

>  <Peripheral>  (717) 
nan

>  <Num_H_Atoms_ProtBoundConf>  (717) 
nan

>  <Num_Resolved_Atoms>  (717) 
nan

>  <Num_Not_Resolved_Atoms>  (717) 
nan

$$$$
CHEMBL1495
     RDKit          3D

  0  0  0  0  0  0  0  0  0  0999 V3000
M  V30 BEGIN CTAB
M  V30 COUNTS 53 55 0 0 0
M  V30 BEGIN ATOM
M  V30 1 C 3.801022 -3.546482 -0.635945 0
M  V30 2 N 3.078876 -3.470019 0.598485 0
M  V30 3 C 3.463558 -4.402941 1.667131 0
M  V30 4 C 2.204216 -4.812949 2.363360 0
M  V30 5 C 1.589454 -3.581509 2.998896 0
M  V30 6 N 1.315698 -2.583135 1.957588 0
M  V30 7 C 2.019909 -2.561416 0.867746 0
M  V30 8 C 1.805502 -1.579801 -0.237963 0
M  V30 9 O 0.752088 -0.744563 0.126927 0
M  V30 10 C 0.251413 0.284127 -0.617984 0
M  V30 11 O 0.972742 0.250015 -1.649724 0
M  V30 12 C -0.809589 1.283587 -0.479763 0
M  V30 13 O -0.775675 2.081475 -1.655387 0
M  V30 14 C -0.443940 2.254660 0.613081 0
M  V30 15 C -0.596750 3.627154 0.472678 0
M  V30 16 C -0.269172 4.529125 1.453821 0
M  V30 17 C 0.237705 4.072601 2.644177 0
M  V30 18 C 0.409245 2.728633 2.836568 0
M  V30 19 C 0.068375 1.857096 1.827458 0
M  V30 20 C -2.196285 0.716893 -0.280269 0
M  V30 21 C -2.274692 -0.101488 0.929494 0
M  V30 22 C -3.435723 -1.037645 1.043716 0
M  V30 23 C -4.351478 -1.070838 -0.150234 0
M  V30 24 C -3.499423 -1.135722 -1.368256 0
M  V30 25 C -2.655264 0.101261 -1.558883 0
M  V30 26 H 3.281045 -4.194289 -1.387920 0
M  V30 27 H 4.002761 -2.544309 -1.093520 0
M  V30 28 H 4.797215 -3.994300 -0.471794 0
M  V30 29 H 4.109647 -3.868572 2.412202 0
M  V30 30 H 3.982254 -5.295012 1.228568 0
M  V30 31 H 1.462588 -5.161451 1.606315 0
M  V30 32 H 2.339428 -5.588044 3.121581 0
M  V30 33 H 0.588497 -3.888599 3.375721 0
M  V30 34 H 2.202298 -3.157150 3.818306 0
M  V30 35 H 1.518408 -2.150386 -1.142304 0
M  V30 36 H 2.734567 -1.053440 -0.479945 0
M  V30 37 H -0.398334 1.565842 -2.410933 0
M  V30 38 H -1.003606 3.980551 -0.485115 0
M  V30 39 H -0.415798 5.588643 1.273589 0
M  V30 40 H 0.483099 4.819652 3.391867 0
M  V30 41 H 0.807935 2.370933 3.773069 0
M  V30 42 H 0.223652 0.809882 2.028302 0
M  V30 43 H -2.843456 1.631624 -0.123641 0
M  V30 44 H -2.294684 0.556990 1.839217 0
M  V30 45 H -1.357421 -0.708159 1.074787 0
M  V30 46 H -3.113763 -2.082919 1.230038 0
M  V30 47 H -4.089482 -0.795978 1.917697 0
M  V30 48 H -4.931271 -2.015650 -0.100690 0
M  V30 49 H -5.101653 -0.263254 -0.157287 0
M  V30 50 H -4.139706 -1.296998 -2.274556 0
M  V30 51 H -2.859266 -2.041286 -1.284754 0
M  V30 52 H -1.798932 -0.195713 -2.202053 0
M  V30 53 H -3.261771 0.799293 -2.175864 0
M  V30 END ATOM
M  V30 BEGIN BOND
M  V30 1 1 1 2
M  V30 2 1 2 3
M  V30 3 1 3 4
M  V30 4 1 4 5
M  V30 5 1 5 6
M  V30 6 2 6 7
M  V30 7 1 7 8
M  V30 8 1 8 9
M  V30 9 1 9 10
M  V30 10 2 10 11
M  V30 11 1 10 12
M  V30 12 1 12 13
M  V30 13 1 12 14
M  V30 14 2 14 15
M  V30 15 1 15 16
M  V30 16 2 16 17
M  V30 17 1 17 18
M  V30 18 2 18 19
M  V30 19 1 12 20
M  V30 20 1 20 21
M  V30 21 1 21 22
M  V30 22 1 22 23
M  V30 23 1 23 24
M  V30 24 1 24 25
M  V30 25 1 7 2
M  V30 26 1 19 14
M  V30 27 1 25 20
M  V30 28 1 1 26
M  V30 29 1 1 27
M  V30 30 1 1 28
M  V30 31 1 3 29
M  V30 32 1 3 30
M  V30 33 1 4 31
M  V30 34 1 4 32
M  V30 35 1 5 33
M  V30 36 1 5 34
M  V30 37 1 8 35
M  V30 38 1 8 36
M  V30 39 1 13 37
M  V30 40 1 15 38
M  V30 41 1 16 39
M  V30 42 1 17 40
M  V30 43 1 18 41
M  V30 44 1 19 42
M  V30 45 1 20 43
M  V30 46 1 21 44
M  V30 47 1 21 45
M  V30 48 1 22 46
M  V30 49 1 22 47
M  V30 50 1 23 48
M  V30 51 1 23 49
M  V30 52 1 24 50
M  V30 53 1 24 51
M  V30 54 1 25 52
M  V30 55 1 25 53
M  V30 END BOND
M  V30 END CTAB
M  END
>  <Dataset>  (718) 
OralDrugs

>  <Ligand_Instance>  (718) 
nan

>  <PDB_ID>  (718) 
nan

>  <Standardized_SMILES>  (718) 
CN1CCCN=C1COC(=O)C(O)(c1ccccc1)C1CCCCC1

>  <Name>  (718) 
Oxyphencyclimine

>  <Pocket>  (718) 
nan

>  <ATP_Site>  (718) 
nan

>  <Peripheral>  (718) 
nan

>  <Num_H_Atoms_ProtBoundConf>  (718) 
nan

>  <Num_Resolved_Atoms>  (718) 
nan

>  <Num_Not_Resolved_Atoms>  (718) 
nan

$$$$
CHEMBL1201286
     RDKit          3D

  0  0  0  0  0  0  0  0  0  0999 V3000
M  V30 BEGIN CTAB
M  V30 COUNTS 59 60 0 0 0
M  V30 BEGIN ATOM
M  V30 1 C 1.785378 -3.712807 0.528947 0
M  V30 2 C 1.863572 -2.244011 0.688341 0
M  V30 3 N 2.804726 -1.745281 1.615785 0 CHG=1 VAL=4
M  V30 4 C 4.152036 -2.163139 1.181891 0
M  V30 5 C 2.572952 -2.250707 2.964985 0
M  V30 6 C 3.267713 -3.520498 3.301156 0
M  V30 7 C 2.852164 -0.325057 1.695800 0
M  V30 8 C 2.184428 0.518077 0.697158 0
M  V30 9 O 0.789991 0.373182 0.565163 0
M  V30 10 C 0.125805 1.212868 -0.352349 0
M  V30 11 O 0.826676 2.046586 -1.006045 0
M  V30 12 C -1.336547 1.237777 -0.646442 0
M  V30 13 O -1.484388 2.372487 -1.505444 0
M  V30 14 C -1.984534 1.528200 0.612627 0
M  V30 15 C -1.376948 2.605921 1.284994 0
M  V30 16 C -1.850182 3.040623 2.515554 0
M  V30 17 C -2.910649 2.454371 3.125039 0
M  V30 18 C -3.518255 1.411405 2.501061 0
M  V30 19 C -3.054986 0.974150 1.280343 0
M  V30 20 C -1.694658 0.080922 -1.461834 0
M  V30 21 C -3.119642 -0.083032 -1.878829 0
M  V30 22 C -3.540773 -1.530673 -1.583203 0
M  V30 23 C -2.721371 -2.478559 -2.438158 0
M  V30 24 C -1.273188 -2.277510 -2.167983 0
M  V30 25 C -1.040513 -1.235309 -1.072595 0
M  V30 26 H 1.125287 -3.886202 -0.375805 0
M  V30 27 H 2.715502 -4.237855 0.258488 0
M  V30 28 H 1.195683 -4.212660 1.338864 0
M  V30 29 H 0.848559 -1.916937 1.016724 0
M  V30 30 H 2.140502 -1.855961 -0.324554 0
M  V30 31 H 4.198134 -1.883100 0.103162 0
M  V30 32 H 4.368573 -3.208009 1.336607 0
M  V30 33 H 4.921057 -1.553979 1.701392 0
M  V30 34 H 1.474944 -2.285863 3.113481 0
M  V30 35 H 2.956899 -1.496243 3.683678 0
M  V30 36 H 4.321495 -3.347184 3.602001 0
M  V30 37 H 3.233011 -4.336061 2.596946 0
M  V30 38 H 2.777693 -3.907552 4.236254 0
M  V30 39 H 3.919353 0.065887 1.740416 0
M  V30 40 H 2.470523 0.049574 2.703374 0
M  V30 41 H 2.696516 0.590431 -0.288041 0
M  V30 42 H 2.291630 1.577099 1.081212 0
M  V30 43 H -1.197225 2.107480 -2.417573 0
M  V30 44 H -0.510979 3.178593 0.916665 0
M  V30 45 H -1.380635 3.878002 3.041205 0
M  V30 46 H -3.347652 2.720885 4.075532 0
M  V30 47 H -4.372953 0.874517 2.903793 0
M  V30 48 H -3.501736 0.162701 0.770331 0
M  V30 49 H -1.154712 0.272462 -2.451143 0
M  V30 50 H -3.244433 -0.027617 -3.006420 0
M  V30 51 H -3.839527 0.636945 -1.510524 0
M  V30 52 H -3.382047 -1.809120 -0.543121 0
M  V30 53 H -4.603975 -1.674918 -1.881910 0
M  V30 54 H -2.999186 -3.501030 -2.103633 0
M  V30 55 H -2.929414 -2.384398 -3.504797 0
M  V30 56 H -0.755033 -3.222461 -1.860474 0
M  V30 57 H -0.762861 -1.980896 -3.107131 0
M  V30 58 H -1.373936 -1.667537 -0.140606 0
M  V30 59 H 0.051004 -1.023915 -1.140808 0
M  V30 END ATOM
M  V30 BEGIN BOND
M  V30 1 1 1 2
M  V30 2 1 2 3
M  V30 3 1 3 4
M  V30 4 1 3 5
M  V30 5 1 5 6
M  V30 6 1 3 7
M  V30 7 1 7 8
M  V30 8 1 8 9
M  V30 9 1 9 10
M  V30 10 2 10 11
M  V30 11 1 10 12
M  V30 12 1 12 13
M  V30 13 1 12 14
M  V30 14 2 14 15
M  V30 15 1 15 16
M  V30 16 2 16 17
M  V30 17 1 17 18
M  V30 18 2 18 19
M  V30 19 1 12 20
M  V30 20 1 20 21
M  V30 21 1 21 22
M  V30 22 1 22 23
M  V30 23 1 23 24
M  V30 24 1 24 25
M  V30 25 1 19 14
M  V30 26 1 25 20
M  V30 27 1 1 26
M  V30 28 1 1 27
M  V30 29 1 1 28
M  V30 30 1 2 29
M  V30 31 1 2 30
M  V30 32 1 4 31
M  V30 33 1 4 32
M  V30 34 1 4 33
M  V30 35 1 5 34
M  V30 36 1 5 35
M  V30 37 1 6 36
M  V30 38 1 6 37
M  V30 39 1 6 38
M  V30 40 1 7 39
M  V30 41 1 7 40
M  V30 42 1 8 41
M  V30 43 1 8 42
M  V30 44 1 13 43
M  V30 45 1 15 44
M  V30 46 1 16 45
M  V30 47 1 17 46
M  V30 48 1 18 47
M  V30 49 1 19 48
M  V30 50 1 20 49
M  V30 51 1 21 50
M  V30 52 1 21 51
M  V30 53 1 22 52
M  V30 54 1 22 53
M  V30 55 1 23 54
M  V30 56 1 23 55
M  V30 57 1 24 56
M  V30 58 1 24 57
M  V30 59 1 25 58
M  V30 60 1 25 59
M  V30 END BOND
M  V30 END CTAB
M  END
>  <Dataset>  (719) 
OralDrugs

>  <Ligand_Instance>  (719) 
nan

>  <PDB_ID>  (719) 
nan

>  <Standardized_SMILES>  (719) 
CC[N+](C)(CC)CCOC(=O)C(O)(c1ccccc1)C1CCCCC1

>  <Name>  (719) 
Oxyphenonium

>  <Pocket>  (719) 
nan

>  <ATP_Site>  (719) 
nan

>  <Peripheral>  (719) 
nan

>  <Num_H_Atoms_ProtBoundConf>  (719) 
nan

>  <Num_Resolved_Atoms>  (719) 
nan

>  <Num_Not_Resolved_Atoms>  (719) 
nan

$$$$
CHEMBL1517
     RDKit          3D

  0  0  0  0  0  0  0  0  0  0999 V3000
M  V30 BEGIN CTAB
M  V30 COUNTS 57 60 0 0 0
M  V30 BEGIN ATOM
M  V30 1 C 2.462226 1.781927 -0.519418 0
M  V30 2 N 1.565535 1.509936 0.555061 0
M  V30 3 C 1.700582 2.534449 1.561992 0
M  V30 4 C 1.699420 0.227210 1.173240 0 CFG=2
M  V30 5 C 3.036397 -0.011628 1.753862 0
M  V30 6 O 4.133519 0.812121 1.653288 0
M  V30 7 C 3.052136 -1.162512 2.410341 0
M  V30 8 C 4.272639 -1.606962 3.068923 0
M  V30 9 N 5.431847 -0.785167 2.990457 0
M  V30 10 O 4.343295 -2.677471 3.698335 0
M  V30 11 C 1.842920 -1.980665 2.468093 0
M  V30 12 O 1.603679 -2.604021 3.558387 0
M  V30 13 C 0.934531 -2.069059 1.280803 0 CFG=1
M  V30 14 O 1.183171 -3.330976 0.742137 0
M  V30 15 C -0.489246 -1.933239 1.673253 0
M  V30 16 O -0.857087 -1.979376 2.988750 0
M  V30 17 C -1.363240 -1.767125 0.677371 0
M  V30 18 C -2.748278 -1.638306 1.111582 0
M  V30 19 O -3.099495 -1.695263 2.306756 0
M  V30 20 C -3.728751 -1.434137 0.051129 0
M  V30 21 C -5.071525 -1.294722 0.288481 0
M  V30 22 O -5.432596 -1.362192 1.625698 0
M  V30 23 C -5.962811 -1.103790 -0.747720 0
M  V30 24 C -5.453944 -1.058423 -2.029132 0
M  V30 25 C -4.080659 -1.201641 -2.264006 0
M  V30 26 C -3.177449 -1.395451 -1.209854 0
M  V30 27 C -1.819899 -1.509777 -1.764073 0 CFG=1
M  V30 28 C -1.830346 -2.622960 -2.787188 0
M  V30 29 O -1.490942 -0.344596 -2.501331 0
M  V30 30 C -0.801718 -1.741874 -0.693980 0 CFG=1
M  V30 31 C 0.254567 -0.627356 -0.681481 0 CFG=2
M  V30 32 O 0.838505 -0.532416 -1.942774 0
M  V30 33 C 1.310997 -0.943377 0.331741 0 CFG=1
M  V30 34 H 3.212805 2.557619 -0.242215 0
M  V30 35 H 1.837829 2.238685 -1.339406 0
M  V30 36 H 3.010524 0.913040 -0.895555 0
M  V30 37 H 1.686574 2.083859 2.595936 0
M  V30 38 H 0.835669 3.254642 1.547252 0
M  V30 39 H 2.639602 3.112239 1.502863 0
M  V30 40 H 0.990941 0.240511 2.052904 0
M  V30 41 H 4.273872 1.560168 2.338194 0
M  V30 42 H 5.880906 0.101572 3.368968 0
M  V30 43 H 6.253217 -0.991658 2.367367 0
M  V30 44 H 0.768152 -3.970913 1.363412 0
M  V30 45 H -1.107722 -1.127582 3.485853 0
M  V30 46 H -5.972495 -2.112052 2.023537 0
M  V30 47 H -7.005510 -1.002199 -0.482478 0
M  V30 48 H -6.195476 -0.907098 -2.800146 0
M  V30 49 H -3.875084 -1.136897 -3.344944 0
M  V30 50 H -0.811062 -3.019461 -3.016716 0
M  V30 51 H -2.497146 -3.409137 -2.386463 0
M  V30 52 H -2.188023 -2.233218 -3.769385 0
M  V30 53 H -2.292700 0.223099 -2.547174 0
M  V30 54 H -0.298737 -2.717107 -0.943659 0
M  V30 55 H -0.293765 0.313337 -0.477302 0
M  V30 56 H 0.727538 0.359376 -2.349141 0
M  V30 57 H 2.224126 -1.295736 -0.189336 0
M  V30 END ATOM
M  V30 BEGIN BOND
M  V30 1 1 1 2
M  V30 2 1 2 3
M  V30 3 1 2 4
M  V30 4 1 4 5
M  V30 5 1 5 6
M  V30 6 2 5 7
M  V30 7 1 7 8
M  V30 8 1 8 9
M  V30 9 2 8 10
M  V30 10 1 7 11
M  V30 11 2 11 12
M  V30 12 1 11 13
M  V30 13 1 13 14 CFG=3
M  V30 14 1 13 15
M  V30 15 1 15 16
M  V30 16 2 15 17
M  V30 17 1 17 18
M  V30 18 2 18 19
M  V30 19 1 18 20
M  V30 20 2 20 21
M  V30 21 1 21 22
M  V30 22 1 21 23
M  V30 23 2 23 24
M  V30 24 1 24 25
M  V30 25 2 25 26
M  V30 26 1 26 27
M  V30 27 1 27 28
M  V30 28 1 27 29 CFG=3
M  V30 29 1 27 30
M  V30 30 1 30 31
M  V30 31 1 31 32
M  V30 32 1 31 33
M  V30 33 1 33 4
M  V30 34 1 33 13
M  V30 35 1 30 17
M  V30 36 1 26 20
M  V30 37 1 1 34
M  V30 38 1 1 35
M  V30 39 1 1 36
M  V30 40 1 3 37
M  V30 41 1 3 38
M  V30 42 1 3 39
M  V30 43 1 4 40 CFG=1
M  V30 44 1 6 41
M  V30 45 1 9 42
M  V30 46 1 9 43
M  V30 47 1 14 44
M  V30 48 1 16 45
M  V30 49 1 22 46
M  V30 50 1 23 47
M  V30 51 1 24 48
M  V30 52 1 25 49
M  V30 53 1 28 50
M  V30 54 1 28 51
M  V30 55 1 28 52
M  V30 56 1 29 53
M  V30 57 1 30 54 CFG=3
M  V30 58 1 31 55 CFG=1
M  V30 59 1 32 56
M  V30 60 1 33 57 CFG=3
M  V30 END BOND
M  V30 END CTAB
M  END
>  <Dataset>  (720) 
OralDrugs

>  <Ligand_Instance>  (720) 
nan

>  <PDB_ID>  (720) 
nan

>  <Standardized_SMILES>  (720) 
CN(C)[C@@H]1C(O)=C(C(N)=O)C(=O)[C@@]2(O)C(O)=C3C(=O)c4c(O)cccc4[C@@](C)(O)[C@H]3[C@H](O)[C@@H]12

>  <Name>  (720) 
Oxytetracycline

>  <Pocket>  (720) 
nan

>  <ATP_Site>  (720) 
nan

>  <Peripheral>  (720) 
nan

>  <Num_H_Atoms_ProtBoundConf>  (720) 
nan

>  <Num_Resolved_Atoms>  (720) 
nan

>  <Num_Not_Resolved_Atoms>  (720) 
nan

$$$$
CHEMBL11662
     RDKit          3D

  0  0  0  0  0  0  0  0  0  0999 V3000
M  V30 BEGIN CTAB
M  V30 COUNTS 29 30 0 0 0
M  V30 BEGIN ATOM
M  V30 1 O -0.509507 -4.928981 5.256628 0
M  V30 2 C -0.607962 -3.691667 5.050556 0
M  V30 3 O -1.209379 -2.865993 5.991404 0
M  V30 4 C -0.089546 -3.109610 3.816849 0
M  V30 5 C -0.176081 -1.813105 3.567505 0
M  V30 6 C 0.304546 -1.122220 2.374311 0
M  V30 7 C 0.153545 0.255653 2.228324 0
M  V30 8 C 0.618699 0.878758 1.088368 0
M  V30 9 C 1.239848 0.198565 0.059993 0
M  V30 10 C 1.689546 1.003012 -1.107938 0
M  V30 11 N 0.609486 1.053810 -2.074515 0
M  V30 12 C 0.398663 0.176746 -3.081938 0
M  V30 13 C -0.717648 0.516163 -3.816134 0
M  V30 14 N -1.161317 1.636321 -3.198465 0
M  V30 15 C -0.388984 1.963653 -2.171585 0
M  V30 16 C 1.394988 -1.169013 0.194269 0
M  V30 17 C 0.927215 -1.786246 1.337582 0
M  V30 18 H -1.527372 -3.194801 6.892598 0
M  V30 19 H 0.382786 -3.712753 3.063123 0
M  V30 20 H -0.653947 -1.220041 4.335688 0
M  V30 21 H -0.329266 0.782967 3.028123 0
M  V30 22 H 0.478141 1.960648 1.018017 0
M  V30 23 H 2.015607 2.014334 -0.797443 0
M  V30 24 H 2.562803 0.550526 -1.630494 0
M  V30 25 H 1.000527 -0.710018 -3.335705 0
M  V30 26 H -1.132605 0.002697 -4.679495 0
M  V30 27 H -0.516058 2.808734 -1.510747 0
M  V30 28 H 1.882496 -1.691556 -0.616577 0
M  V30 29 H 1.083673 -2.838980 1.366390 0
M  V30 END ATOM
M  V30 BEGIN BOND
M  V30 1 2 1 2
M  V30 2 1 2 3
M  V30 3 1 2 4
M  V30 4 2 4 5
M  V30 5 1 5 6
M  V30 6 2 6 7
M  V30 7 1 7 8
M  V30 8 2 8 9
M  V30 9 1 9 10
M  V30 10 1 10 11
M  V30 11 1 11 12
M  V30 12 2 12 13
M  V30 13 1 13 14
M  V30 14 2 14 15
M  V30 15 1 9 16
M  V30 16 2 16 17
M  V30 17 1 17 6
M  V30 18 1 15 11
M  V30 19 1 3 18
M  V30 20 1 4 19
M  V30 21 1 5 20
M  V30 22 1 7 21
M  V30 23 1 8 22
M  V30 24 1 10 23
M  V30 25 1 10 24
M  V30 26 1 12 25
M  V30 27 1 13 26
M  V30 28 1 15 27
M  V30 29 1 16 28
M  V30 30 1 17 29
M  V30 END BOND
M  V30 END CTAB
M  END
>  <Dataset>  (721) 
OralDrugs

>  <Ligand_Instance>  (721) 
nan

>  <PDB_ID>  (721) 
nan

>  <Standardized_SMILES>  (721) 
O=C(O)/C=C/c1ccc(Cn2ccnc2)cc1

>  <Name>  (721) 
Ozagrel

>  <Pocket>  (721) 
nan

>  <ATP_Site>  (721) 
nan

>  <Peripheral>  (721) 
nan

>  <Num_H_Atoms_ProtBoundConf>  (721) 
nan

>  <Num_Resolved_Atoms>  (721) 
nan

>  <Num_Not_Resolved_Atoms>  (721) 
nan

$$$$
CHEMBL3707247
     RDKit          3D

  0  0  0  0  0  0  0  0  0  0999 V3000
M  V30 BEGIN CTAB
M  V30 COUNTS 54 57 0 0 0
M  V30 BEGIN ATOM
M  V30 1 C 3.428801 -6.534026 4.300346 0
M  V30 2 C 2.660656 -5.276788 4.728542 0
M  V30 3 C 3.255700 -4.907722 6.099626 0
M  V30 4 O 2.721102 -4.259891 3.914853 0
M  V30 5 C 2.735959 -3.271380 3.119358 0
M  V30 6 C 1.491950 -2.893223 2.665349 0
M  V30 7 C 1.229943 -1.854731 1.799451 0
M  V30 8 C 2.331922 -1.153334 1.369065 0
M  V30 9 C 2.468333 0.001029 0.457636 0
M  V30 10 N 1.255988 0.389350 -0.013067 0
M  V30 11 C 1.336969 1.427953 -0.844037 0
M  V30 12 C 0.265931 2.134198 -1.562502 0
M  V30 13 C 0.638527 3.172828 -2.384297 0
M  V30 14 C -0.329858 3.868703 -3.073314 0
M  V30 15 C -1.629161 3.464330 -2.884476 0
M  V30 16 C -1.986162 2.428289 -2.061781 0
M  V30 17 C -1.022585 1.700627 -1.346557 0
M  V30 18 C -1.737817 0.663789 -0.558860 0
M  V30 19 C -3.096119 1.281998 -0.414255 0
M  V30 20 C -3.337430 1.883196 -1.750764 0 CFG=2
M  V30 21 N -3.713436 1.023452 -2.788395 0
M  V30 22 C -4.905134 0.280376 -2.675932 0
M  V30 23 C -6.155831 1.167541 -2.723208 0
M  V30 24 O -7.268184 0.332448 -2.599084 0
M  V30 25 N 2.655880 1.665227 -0.864943 0
M  V30 26 O 3.301372 0.832331 -0.106962 0
M  V30 27 C 3.645146 -1.473664 1.784672 0
M  V30 28 C 3.798915 -2.533899 2.655266 0
M  V30 29 C 5.107461 -2.956580 3.156751 0
M  V30 30 N 6.133460 -3.272116 3.561413 0
M  V30 31 H 3.906340 -7.008711 5.160834 0
M  V30 32 H 4.168434 -6.329473 3.511348 0
M  V30 33 H 2.715377 -7.288878 3.885582 0
M  V30 34 H 1.628171 -5.670880 5.005579 0
M  V30 35 H 2.536461 -4.350144 6.728023 0
M  V30 36 H 3.651725 -5.781915 6.627996 0
M  V30 37 H 4.133961 -4.220651 5.954429 0
M  V30 38 H 0.547130 -3.374172 2.935134 0
M  V30 39 H 0.318643 -1.474275 1.387268 0
M  V30 40 H 1.708883 3.424134 -2.470542 0
M  V30 41 H 0.062298 4.664585 -3.689770 0
M  V30 42 H -2.374866 4.037971 -3.444864 0
M  V30 43 H -1.341044 0.501372 0.450836 0
M  V30 44 H -1.751210 -0.314558 -1.071871 0
M  V30 45 H -3.867785 0.662379 0.011659 0
M  V30 46 H -2.963357 2.147767 0.299596 0
M  V30 47 H -4.059337 2.740431 -1.582532 0
M  V30 48 H -3.517061 1.352016 -3.752651 0
M  V30 49 H -4.994789 -0.370801 -3.581155 0
M  V30 50 H -4.994588 -0.374476 -1.808835 0
M  V30 51 H -6.134819 1.961822 -1.955922 0
M  V30 52 H -6.201398 1.621947 -3.728068 0
M  V30 53 H -7.145971 -0.397547 -1.952710 0
M  V30 54 H 4.577465 -1.011709 1.529445 0
M  V30 END ATOM
M  V30 BEGIN BOND
M  V30 1 1 1 2
M  V30 2 1 2 3
M  V30 3 1 2 4
M  V30 4 1 4 5
M  V30 5 2 5 6
M  V30 6 1 6 7
M  V30 7 2 7 8
M  V30 8 1 8 9
M  V30 9 2 9 10
M  V30 10 1 10 11
M  V30 11 1 11 12
M  V30 12 2 12 13
M  V30 13 1 13 14
M  V30 14 2 14 15
M  V30 15 1 15 16
M  V30 16 2 16 17
M  V30 17 1 17 18
M  V30 18 1 18 19
M  V30 19 1 19 20
M  V30 20 1 20 21
M  V30 21 1 21 22
M  V30 22 1 22 23
M  V30 23 1 23 24
M  V30 24 2 11 25
M  V30 25 1 25 26
M  V30 26 1 8 27
M  V30 27 2 27 28
M  V30 28 1 28 29
M  V30 29 3 29 30
M  V30 30 1 28 5
M  V30 31 1 26 9
M  V30 32 1 17 12
M  V30 33 1 20 16
M  V30 34 1 1 31
M  V30 35 1 1 32
M  V30 36 1 1 33
M  V30 37 1 2 34
M  V30 38 1 3 35
M  V30 39 1 3 36
M  V30 40 1 3 37
M  V30 41 1 6 38
M  V30 42 1 7 39
M  V30 43 1 13 40
M  V30 44 1 14 41
M  V30 45 1 15 42
M  V30 46 1 18 43
M  V30 47 1 18 44
M  V30 48 1 19 45
M  V30 49 1 19 46
M  V30 50 1 20 47 CFG=1
M  V30 51 1 21 48
M  V30 52 1 22 49
M  V30 53 1 22 50
M  V30 54 1 23 51
M  V30 55 1 23 52
M  V30 56 1 24 53
M  V30 57 1 27 54
M  V30 END BOND
M  V30 END CTAB
M  END
>  <Dataset>  (722) 
OralDrugs

>  <Ligand_Instance>  (722) 
nan

>  <PDB_ID>  (722) 
nan

>  <Standardized_SMILES>  (722) 
CC(C)Oc1ccc(-c2nc(-c3cccc4c3CC[C@@H]4NCCO)no2)cc1C#N

>  <Name>  (722) 
Ozanimod

>  <Pocket>  (722) 
nan

>  <ATP_Site>  (722) 
nan

>  <Peripheral>  (722) 
nan

>  <Num_H_Atoms_ProtBoundConf>  (722) 
nan

>  <Num_Resolved_Atoms>  (722) 
nan

>  <Num_Not_Resolved_Atoms>  (722) 
nan

$$$$
CHEMBL2035187
     RDKit          3D

  0  0  0  0  0  0  0  0  0  0999 V3000
M  V30 BEGIN CTAB
M  V30 COUNTS 67 71 0 0 0
M  V30 BEGIN ATOM
M  V30 1 C 1.883459 1.489492 -6.810822 0
M  V30 2 N 0.844545 2.053560 -6.245679 0
M  V30 3 C 0.305032 1.545203 -5.040113 0
M  V30 4 N -0.710856 2.037431 -4.421573 0
M  V30 5 C -1.234766 1.536894 -3.237521 0
M  V30 6 C -0.489555 1.985958 -2.136874 0
M  V30 7 C -0.820903 1.644379 -0.841031 0
M  V30 8 C -1.889535 0.848439 -0.488278 0
M  V30 9 O -2.383388 0.402811 0.677608 0
M  V30 10 C -1.864082 0.703471 1.929172 0
M  V30 11 C -1.909736 2.142085 2.349158 0
M  V30 12 N -1.323077 2.334850 3.669821 0
M  V30 13 C -2.143250 1.724431 4.704940 0
M  V30 14 C -1.711205 2.449020 5.984541 0
M  V30 15 C -1.415457 3.828520 5.499757 0
M  V30 16 C -1.304683 3.751291 3.992075 0
M  V30 17 C -2.644562 0.390345 -1.593821 0
M  V30 18 C -2.293937 0.743847 -2.879448 0
M  V30 19 C -3.861191 -0.441618 -1.416070 0
M  V30 20 O -3.873354 -1.370268 -0.455810 0
M  V30 21 C -3.181532 -2.475236 -0.356450 0
M  V30 22 C -1.698539 -2.499057 -0.365091 0
M  V30 23 C -1.008789 -3.182690 -1.293832 0
M  V30 24 C 0.407649 -3.449791 -1.637073 0
M  V30 25 O 1.348431 -2.872749 -0.837823 0
M  V30 26 C 2.622733 -3.232553 -1.265390 0
M  V30 27 C 2.934105 -2.839802 -2.655731 0
M  V30 28 C 3.768619 -3.648218 -3.441498 0
M  V30 29 C 4.036345 -3.295468 -4.749857 0
M  V30 30 C 3.498913 -2.147474 -5.328926 0
M  V30 31 C 2.682973 -1.369316 -4.539209 0
M  V30 32 C 2.401357 -1.697906 -3.230273 0
M  V30 33 C 2.088275 -0.204643 -5.125210 0
M  V30 34 C 2.559030 0.306280 -6.250720 0
M  V30 35 N 0.960602 0.400892 -4.502396 0
M  V30 36 H 2.243647 1.945526 -7.747343 0
M  V30 37 H 0.402974 2.633020 -2.189848 0
M  V30 38 H -0.236126 1.972833 0.002376 0
M  V30 39 H -0.803187 0.328990 1.938242 0
M  V30 40 H -2.355699 0.125760 2.753901 0
M  V30 41 H -1.486444 2.857013 1.667622 0
M  V30 42 H -2.994354 2.475137 2.475834 0
M  V30 43 H -3.192428 1.960606 4.482397 0
M  V30 44 H -1.917947 0.651179 4.843893 0
M  V30 45 H -0.748553 1.950859 6.277938 0
M  V30 46 H -2.466578 2.389162 6.776435 0
M  V30 47 H -2.168904 4.588504 5.819063 0
M  V30 48 H -0.431878 4.149594 5.952215 0
M  V30 49 H -0.361910 4.256007 3.702774 0
M  V30 50 H -2.176975 4.294356 3.558963 0
M  V30 51 H -2.851970 0.408038 -3.736572 0
M  V30 52 H -4.025689 -0.972537 -2.408430 0
M  V30 53 H -4.762281 0.233704 -1.312344 0
M  V30 54 H -3.521624 -3.299542 -1.091974 0
M  V30 55 H -3.492708 -2.983568 0.634281 0
M  V30 56 H -1.077462 -1.987721 0.349562 0
M  V30 57 H -1.652090 -3.708903 -2.031648 0
M  V30 58 H 0.512975 -4.578827 -1.673250 0
M  V30 59 H 0.564789 -3.143300 -2.683884 0
M  V30 60 H 2.761116 -4.353103 -1.214118 0
M  V30 61 H 3.401166 -2.823731 -0.570937 0
M  V30 62 H 4.199105 -4.535905 -3.034908 0
M  V30 63 H 4.694043 -3.948228 -5.340190 0
M  V30 64 H 3.774204 -1.975515 -6.351606 0
M  V30 65 H 1.788890 -1.115731 -2.591971 0
M  V30 66 H 3.400937 -0.072635 -6.792257 0
M  V30 67 H 0.568166 0.020072 -3.622066 0
M  V30 END ATOM
M  V30 BEGIN BOND
M  V30 1 2 1 2
M  V30 2 1 2 3
M  V30 3 2 3 4
M  V30 4 1 4 5
M  V30 5 2 5 6
M  V30 6 1 6 7
M  V30 7 2 7 8
M  V30 8 1 8 9
M  V30 9 1 9 10
M  V30 10 1 10 11
M  V30 11 1 11 12
M  V30 12 1 12 13
M  V30 13 1 13 14
M  V30 14 1 14 15
M  V30 15 1 15 16
M  V30 16 1 8 17
M  V30 17 2 17 18
M  V30 18 1 17 19
M  V30 19 1 19 20
M  V30 20 1 20 21
M  V30 21 1 21 22
M  V30 22 2 22 23
M  V30 23 1 23 24
M  V30 24 1 24 25
M  V30 25 1 25 26
M  V30 26 1 26 27
M  V30 27 2 27 28
M  V30 28 1 28 29
M  V30 29 2 29 30
M  V30 30 1 30 31
M  V30 31 2 31 32
M  V30 32 1 31 33
M  V30 33 2 33 34
M  V30 34 1 33 35
M  V30 35 1 34 1
M  V30 36 1 35 3
M  V30 37 1 18 5
M  V30 38 1 32 27
M  V30 39 1 16 12
M  V30 40 1 1 36
M  V30 41 1 6 37
M  V30 42 1 7 38
M  V30 43 1 10 39
M  V30 44 1 10 40
M  V30 45 1 11 41
M  V30 46 1 11 42
M  V30 47 1 13 43
M  V30 48 1 13 44
M  V30 49 1 14 45
M  V30 50 1 14 46
M  V30 51 1 15 47
M  V30 52 1 15 48
M  V30 53 1 16 49
M  V30 54 1 16 50
M  V30 55 1 18 51
M  V30 56 1 19 52
M  V30 57 1 19 53
M  V30 58 1 21 54
M  V30 59 1 21 55
M  V30 60 1 22 56
M  V30 61 1 23 57
M  V30 62 1 24 58
M  V30 63 1 24 59
M  V30 64 1 26 60
M  V30 65 1 26 61
M  V30 66 1 28 62
M  V30 67 1 29 63
M  V30 68 1 30 64
M  V30 69 1 32 65
M  V30 70 1 34 66
M  V30 71 1 35 67
M  V30 END BOND
M  V30 END CTAB
M  END
>  <Dataset>  (723) 
OralDrugs

>  <Ligand_Instance>  (723) 
nan

>  <PDB_ID>  (723) 
nan

>  <Standardized_SMILES>  (723) 
C1=N/C2=N/c3ccc(OCCN4CCCC4)c(c3)COC/C=C/COCc3cccc(c3)C(=C1)N2

>  <Name>  (723) 
Pacritinib

>  <Pocket>  (723) 
nan

>  <ATP_Site>  (723) 
nan

>  <Peripheral>  (723) 
nan

>  <Num_H_Atoms_ProtBoundConf>  (723) 
nan

>  <Num_Resolved_Atoms>  (723) 
nan

>  <Num_Not_Resolved_Atoms>  (723) 
nan

$$$$
CHEMBL5095049
     RDKit          3D

  0  0  0  0  0  0  0  0  0  0999 V3000
M  V30 BEGIN CTAB
M  V30 COUNTS 67 71 0 0 0
M  V30 BEGIN ATOM
M  V30 1 C 1.871679 -0.650632 3.458161 0
M  V30 2 C 1.525430 0.538140 2.913053 0
M  V30 3 C 2.496317 1.529150 2.393018 0
M  V30 4 O 2.522825 1.956050 1.172932 0
M  V30 5 C 2.643977 1.382099 0.011097 0
M  V30 6 C 1.527885 0.523477 -0.514168 0
M  V30 7 C 1.930661 -0.591389 -1.256626 0
M  V30 8 C 1.053022 -1.440925 -1.852112 0
M  V30 9 C -0.307534 -1.154065 -1.691882 0
M  V30 10 C -0.664004 -0.047959 -0.952617 0
M  V30 11 C 0.163447 0.850692 -0.325934 0
M  V30 12 O 0.086083 1.936967 0.406551 0
M  V30 13 C -0.873797 2.739627 0.909317 0
M  V30 14 C -1.775004 3.488737 -0.018008 0
M  V30 15 N -2.610682 2.740148 -0.888525 0
M  V30 16 C -3.281714 3.641654 -1.831246 0
M  V30 17 C -4.433931 4.160374 -1.034331 0
M  V30 18 C -4.954372 2.880328 -0.404902 0
M  V30 19 C -3.709229 2.089729 -0.175072 0
M  V30 20 N 1.216453 -2.598433 -2.614631 0
M  V30 21 C 1.880845 -3.806369 -2.474279 0
M  V30 22 N 2.699137 -4.728175 -2.959548 0
M  V30 23 C 2.976576 -5.819862 -2.201845 0
M  V30 24 C 2.451599 -6.027357 -0.943669 0
M  V30 25 C 1.618141 -5.022556 -0.526615 0
M  V30 26 N 1.353960 -3.965148 -1.271150 0
M  V30 27 C 0.901739 -4.905547 0.738392 0
M  V30 28 C 0.627674 -6.130542 1.306635 0
M  V30 29 C -0.062456 -6.070315 2.524757 0
M  V30 30 C -0.412863 -4.847309 3.062983 0
M  V30 31 C -0.108526 -3.642472 2.443170 0
M  V30 32 C 0.562798 -3.676561 1.256320 0
M  V30 33 C -0.564233 -2.405068 3.183526 0
M  V30 34 O 0.217769 -2.202972 4.291439 0
M  V30 35 C 1.542275 -1.935337 4.087465 0
M  V30 36 H 2.983701 -0.708620 3.427519 0
M  V30 37 H 0.445725 0.765574 2.862208 0
M  V30 38 H 2.372445 2.453603 3.082573 0
M  V30 39 H 3.532662 1.172902 2.783169 0
M  V30 40 H 2.913598 2.143222 -0.804778 0
M  V30 41 H 3.589685 0.728935 -0.014581 0
M  V30 42 H 2.962563 -0.846005 -1.401960 0
M  V30 43 H -1.096670 -1.758139 -2.125105 0
M  V30 44 H -1.702168 0.188526 -0.799515 0
M  V30 45 H -1.584019 2.204340 1.628115 0
M  V30 46 H -0.447989 3.543860 1.600002 0
M  V30 47 H -1.152398 4.215874 -0.594184 0
M  V30 48 H -2.455020 4.102506 0.639400 0
M  V30 49 H -3.618444 3.138362 -2.743270 0
M  V30 50 H -2.520546 4.426500 -2.055127 0
M  V30 51 H -4.092196 4.894032 -0.278684 0
M  V30 52 H -5.196173 4.589532 -1.724879 0
M  V30 53 H -5.592836 2.390604 -1.189289 0
M  V30 54 H -5.524947 3.053125 0.524406 0
M  V30 55 H -3.437088 1.966418 0.871888 0
M  V30 56 H -3.902672 1.057187 -0.569379 0
M  V30 57 H 0.808341 -2.796093 -3.548836 0
M  V30 58 H 3.638612 -6.577506 -2.581192 0
M  V30 59 H 2.588696 -6.836204 -0.251004 0
M  V30 60 H 0.913237 -7.075651 0.865713 0
M  V30 61 H -0.310861 -7.012485 3.030286 0
M  V30 62 H -0.946351 -4.910357 4.012074 0
M  V30 63 H 0.843447 -2.796085 0.700827 0
M  V30 64 H -0.503786 -1.579669 2.449190 0
M  V30 65 H -1.594217 -2.609921 3.507325 0
M  V30 66 H 2.031581 -2.039056 5.103481 0
M  V30 67 H 1.952901 -2.777704 3.476727 0
M  V30 END ATOM
M  V30 BEGIN BOND
M  V30 1 2 1 2
M  V30 2 1 2 3
M  V30 3 1 3 4
M  V30 4 1 4 5
M  V30 5 1 5 6
M  V30 6 1 6 7
M  V30 7 2 7 8
M  V30 8 1 8 9
M  V30 9 2 9 10
M  V30 10 1 10 11
M  V30 11 1 11 12
M  V30 12 1 12 13
M  V30 13 1 13 14
M  V30 14 1 14 15
M  V30 15 1 15 16
M  V30 16 1 16 17
M  V30 17 1 17 18
M  V30 18 1 18 19
M  V30 19 1 8 20
M  V30 20 1 20 21
M  V30 21 1 21 22
M  V30 22 2 22 23
M  V30 23 1 23 24
M  V30 24 2 24 25
M  V30 25 1 25 26
M  V30 26 1 25 27
M  V30 27 1 27 28
M  V30 28 2 28 29
M  V30 29 1 29 30
M  V30 30 2 30 31
M  V30 31 1 31 32
M  V30 32 1 31 33
M  V30 33 1 33 34
M  V30 34 1 34 35
M  V30 35 1 35 1
M  V30 36 2 11 6
M  V30 37 1 19 15
M  V30 38 2 26 21
M  V30 39 2 32 27
M  V30 40 1 1 36
M  V30 41 1 2 37
M  V30 42 1 3 38
M  V30 43 1 3 39
M  V30 44 1 5 40
M  V30 45 1 5 41
M  V30 46 1 7 42
M  V30 47 1 9 43
M  V30 48 1 10 44
M  V30 49 1 13 45
M  V30 50 1 13 46
M  V30 51 1 14 47
M  V30 52 1 14 48
M  V30 53 1 16 49
M  V30 54 1 16 50
M  V30 55 1 17 51
M  V30 56 1 17 52
M  V30 57 1 18 53
M  V30 58 1 18 54
M  V30 59 1 19 55
M  V30 60 1 19 56
M  V30 61 1 20 57
M  V30 62 1 23 58
M  V30 63 1 24 59
M  V30 64 1 28 60
M  V30 65 1 29 61
M  V30 66 1 30 62
M  V30 67 1 32 63
M  V30 68 1 33 64
M  V30 69 1 33 65
M  V30 70 1 35 66
M  V30 71 1 35 67
M  V30 END BOND
M  V30 END CTAB
M  END
>  <Dataset>  (724) 
OralDrugs

>  <Ligand_Instance>  (724) 
nan

>  <PDB_ID>  (724) 
nan

>  <Standardized_SMILES>  (724) 
C1=C/COCc2cc(ccc2OCCN2CCCC2)Nc2nccc(n2)-c2cccc(c2)COC/1

>  <Name>  (724) 
Pacritinib Citrate

>  <Pocket>  (724) 
nan

>  <ATP_Site>  (724) 
nan

>  <Peripheral>  (724) 
nan

>  <Num_H_Atoms_ProtBoundConf>  (724) 
nan

>  <Num_Resolved_Atoms>  (724) 
nan

>  <Num_Not_Resolved_Atoms>  (724) 
nan

$$$$
CHEMBL189963
     RDKit          3D

  0  0  0  0  0  0  0  0  0  0999 V3000
M  V30 BEGIN CTAB
M  V30 COUNTS 62 66 0 0 0
M  V30 BEGIN ATOM
M  V30 1 C 4.743035 -4.616005 4.585555 0
M  V30 2 C 3.532109 -3.844998 4.229840 0
M  V30 3 O 2.535724 -3.855396 5.022403 0
M  V30 4 C 3.110066 -2.996861 3.131045 0
M  V30 5 C 3.382792 -1.628149 3.234271 0
M  V30 6 C 4.078327 -1.042158 4.409021 0
M  V30 7 C 2.982483 -0.822916 2.193703 0
M  V30 8 C 3.228683 0.520924 2.258506 0
M  V30 9 N 2.846471 1.333102 1.256862 0
M  V30 10 C 2.207043 0.832966 0.158721 0
M  V30 11 N 1.688487 1.456191 -1.017278 0
M  V30 12 C 0.273477 1.737531 -0.998155 0
M  V30 13 C -0.382935 2.335201 -2.072126 0
M  V30 14 C -1.735148 2.600475 -2.080389 0
M  V30 15 C -2.500562 2.267186 -0.981254 0
M  V30 16 N -3.912012 2.458463 -0.840060 0
M  V30 17 C -4.718155 2.308644 0.340040 0
M  V30 18 C -5.920376 1.425061 0.186157 0
M  V30 19 N -6.578162 1.574263 -1.093702 0
M  V30 20 C -5.627565 1.584198 -2.187966 0
M  V30 21 C -4.775368 2.842882 -1.947456 0
M  V30 22 C -1.820168 1.678559 0.063648 0
M  V30 23 N -0.506609 1.419647 0.074237 0
M  V30 24 N 1.979721 -0.488645 0.123953 0
M  V30 25 C 2.337007 -1.347436 1.091928 0
M  V30 26 N 2.061978 -2.683733 0.973977 0
M  V30 27 C 1.386270 -3.240437 -0.168482 0
M  V30 28 C 0.660038 -2.257803 -1.013983 0
M  V30 29 C -0.276702 -3.131504 -1.861498 0
M  V30 30 C -0.378970 -4.444033 -1.158877 0
M  V30 31 C 0.321979 -4.247380 0.173182 0
M  V30 32 C 2.461788 -3.445357 1.999906 0
M  V30 33 O 2.278821 -4.689068 2.032455 0
M  V30 34 H 4.809339 -4.580045 5.702196 0
M  V30 35 H 4.662851 -5.706687 4.317372 0
M  V30 36 H 5.660542 -4.244180 4.107213 0
M  V30 37 H 4.177928 -1.841690 5.173500 0
M  V30 38 H 3.484960 -0.216893 4.848149 0
M  V30 39 H 5.063919 -0.620716 4.118847 0
M  V30 40 H 3.725676 1.029285 3.073173 0
M  V30 41 H 2.181625 1.731896 -1.877207 0
M  V30 42 H 0.202708 2.604287 -2.943247 0
M  V30 43 H -2.233607 3.062991 -2.913015 0
M  V30 44 H -4.159647 1.942718 1.217650 0
M  V30 45 H -5.044983 3.351317 0.631678 0
M  V30 46 H -6.661891 1.780353 0.957059 0
M  V30 47 H -5.748357 0.358544 0.397623 0
M  V30 48 H -7.210171 0.761565 -1.241973 0
M  V30 49 H -6.158048 1.602054 -3.140337 0
M  V30 50 H -4.918323 0.728908 -2.106621 0
M  V30 51 H -5.470476 3.652064 -1.655963 0
M  V30 52 H -4.242405 3.042191 -2.881321 0
M  V30 53 H -2.242179 1.352675 0.994768 0
M  V30 54 H 2.119186 -3.764246 -0.811051 0
M  V30 55 H -0.024426 -1.572796 -0.472964 0
M  V30 56 H 1.336647 -1.789521 -1.726388 0
M  V30 57 H -1.283536 -2.702327 -1.959320 0
M  V30 58 H 0.106108 -3.262408 -2.897680 0
M  V30 59 H 0.201530 -5.197410 -1.726075 0
M  V30 60 H -1.425162 -4.789109 -1.022217 0
M  V30 61 H 0.702583 -5.246873 0.449495 0
M  V30 62 H -0.377139 -3.881603 0.952177 0
M  V30 END ATOM
M  V30 BEGIN BOND
M  V30 1 1 1 2
M  V30 2 2 2 3
M  V30 3 1 2 4
M  V30 4 2 4 5
M  V30 5 1 5 6
M  V30 6 1 5 7
M  V30 7 2 7 8
M  V30 8 1 8 9
M  V30 9 2 9 10
M  V30 10 1 10 11
M  V30 11 1 11 12
M  V30 12 2 12 13
M  V30 13 1 13 14
M  V30 14 2 14 15
M  V30 15 1 15 16
M  V30 16 1 16 17
M  V30 17 1 17 18
M  V30 18 1 18 19
M  V30 19 1 19 20
M  V30 20 1 20 21
M  V30 21 1 15 22
M  V30 22 2 22 23
M  V30 23 1 10 24
M  V30 24 2 24 25
M  V30 25 1 25 26
M  V30 26 1 26 27
M  V30 27 1 27 28
M  V30 28 1 28 29
M  V30 29 1 29 30
M  V30 30 1 30 31
M  V30 31 1 26 32
M  V30 32 2 32 33
M  V30 33 1 32 4
M  V30 34 1 25 7
M  V30 35 1 31 27
M  V30 36 1 23 12
M  V30 37 1 21 16
M  V30 38 1 1 34
M  V30 39 1 1 35
M  V30 40 1 1 36
M  V30 41 1 6 37
M  V30 42 1 6 38
M  V30 43 1 6 39
M  V30 44 1 8 40
M  V30 45 1 11 41
M  V30 46 1 13 42
M  V30 47 1 14 43
M  V30 48 1 17 44
M  V30 49 1 17 45
M  V30 50 1 18 46
M  V30 51 1 18 47
M  V30 52 1 19 48
M  V30 53 1 20 49
M  V30 54 1 20 50
M  V30 55 1 21 51
M  V30 56 1 21 52
M  V30 57 1 22 53
M  V30 58 1 27 54
M  V30 59 1 28 55
M  V30 60 1 28 56
M  V30 61 1 29 57
M  V30 62 1 29 58
M  V30 63 1 30 59
M  V30 64 1 30 60
M  V30 65 1 31 61
M  V30 66 1 31 62
M  V30 END BOND
M  V30 END CTAB
M  END
>  <Dataset>  (725) 
OralDrugs

>  <Ligand_Instance>  (725) 
nan

>  <PDB_ID>  (725) 
nan

>  <Standardized_SMILES>  (725) 
CC(=O)c1c(C)c2cnc(Nc3ccc(N4CCNCC4)cn3)nc2n(C2CCCC2)c1=O

>  <Name>  (725) 
Palbociclib

>  <Pocket>  (725) 
nan

>  <ATP_Site>  (725) 
nan

>  <Peripheral>  (725) 
nan

>  <Num_H_Atoms_ProtBoundConf>  (725) 
nan

>  <Num_Resolved_Atoms>  (725) 
nan

>  <Num_Not_Resolved_Atoms>  (725) 
nan

$$$$
CHEMBL1621
     RDKit          3D

  0  0  0  0  0  0  0  0  0  0999 V3000
M  V30 BEGIN CTAB
M  V30 COUNTS 58 62 0 0 0
M  V30 BEGIN ATOM
M  V30 1 C -0.525841 -1.703308 2.301016 0
M  V30 2 C 0.404585 -2.719540 1.768733 0
M  V30 3 N -0.025750 -4.000436 1.673076 0
M  V30 4 C 0.800424 -4.967458 1.190900 0
M  V30 5 N 2.040131 -4.614093 0.818282 0
M  V30 6 C 2.515098 -3.357589 0.893462 0
M  V30 7 O 3.669360 -3.035143 0.545457 0
M  V30 8 C 1.698578 -2.358623 1.378238 0
M  V30 9 C 2.082565 -0.911795 1.515557 0
M  V30 10 C 1.471592 -0.114105 0.399586 0
M  V30 11 N 1.674020 1.245679 0.310816 0
M  V30 12 C 1.149748 2.170673 1.217021 0
M  V30 13 C -0.040436 2.959307 0.726493 0
M  V30 14 C -0.519373 2.517057 -0.626190 0
M  V30 15 C -1.537555 3.457493 -1.130158 0
M  V30 16 N -1.438269 4.573773 -1.871363 0
M  V30 17 O -2.610007 5.096833 -2.088260 0
M  V30 18 C -3.571499 4.422340 -1.543478 0
M  V30 19 C -4.941930 4.492883 -1.442892 0
M  V30 20 C -5.642580 3.541953 -0.745291 0
M  V30 21 F -7.002125 3.594513 -0.633420 0
M  V30 22 C -5.040034 2.477514 -0.113464 0
M  V30 23 C -3.649282 2.411179 -0.219393 0
M  V30 24 C -2.917034 3.358034 -0.917013 0
M  V30 25 C 0.613407 2.407551 -1.599902 0
M  V30 26 C 1.820305 1.720698 -1.012015 0
M  V30 27 C 2.860800 -5.668916 0.318774 0
M  V30 28 C 2.696319 -6.822350 1.303975 0
M  V30 29 C 1.299529 -7.314435 1.439988 0
M  V30 30 C 0.219775 -6.314564 1.134242 0
M  V30 31 O -0.882116 -6.449106 1.966352 0
M  V30 32 H -1.337938 -1.495315 1.571873 0
M  V30 33 H -1.072520 -2.197847 3.158115 0
M  V30 34 H -0.082224 -0.814324 2.721066 0
M  V30 35 H 1.956923 -0.502264 2.501007 0
M  V30 36 H 3.179292 -0.921248 1.328502 0
M  V30 37 H 0.380044 -0.325755 0.395971 0
M  V30 38 H 1.799192 -0.558510 -0.590829 0
M  V30 39 H 0.869011 1.740583 2.190847 0
M  V30 40 H 1.950893 2.907401 1.449730 0
M  V30 41 H 0.187578 4.052572 0.636011 0
M  V30 42 H -0.909055 2.927180 1.420340 0
M  V30 43 H -0.989146 1.497757 -0.548038 0
M  V30 44 H -5.448384 5.324638 -1.931718 0
M  V30 45 H -5.614938 1.739349 0.431841 0
M  V30 46 H -3.179197 1.573210 0.277948 0
M  V30 47 H 0.875776 3.425673 -1.972006 0
M  V30 48 H 0.223641 1.851423 -2.493625 0
M  V30 49 H 2.676720 2.421797 -1.054676 0
M  V30 50 H 2.094761 0.869827 -1.703010 0
M  V30 51 H 3.925381 -5.355091 0.392596 0
M  V30 52 H 2.595183 -5.986650 -0.710604 0
M  V30 53 H 3.045240 -6.416222 2.291994 0
M  V30 54 H 3.361749 -7.655851 0.987942 0
M  V30 55 H 1.136323 -7.594841 2.521672 0
M  V30 56 H 1.168048 -8.257821 0.860842 0
M  V30 57 H -0.152434 -6.589510 0.111252 0
M  V30 58 H -1.567716 -5.794033 1.683091 0
M  V30 END ATOM
M  V30 BEGIN BOND
M  V30 1 1 1 2
M  V30 2 1 2 3
M  V30 3 2 3 4
M  V30 4 1 4 5
M  V30 5 1 5 6
M  V30 6 2 6 7
M  V30 7 1 6 8
M  V30 8 1 8 9
M  V30 9 1 9 10
M  V30 10 1 10 11
M  V30 11 1 11 12
M  V30 12 1 12 13
M  V30 13 1 13 14
M  V30 14 1 14 15
M  V30 15 2 15 16
M  V30 16 1 16 17
M  V30 17 1 17 18
M  V30 18 2 18 19
M  V30 19 1 19 20
M  V30 20 1 20 21
M  V30 21 2 20 22
M  V30 22 1 22 23
M  V30 23 2 23 24
M  V30 24 1 14 25
M  V30 25 1 25 26
M  V30 26 1 5 27
M  V30 27 1 27 28
M  V30 28 1 28 29
M  V30 29 1 29 30
M  V30 30 1 30 31
M  V30 31 2 8 2
M  V30 32 1 26 11
M  V30 33 1 30 4
M  V30 34 1 24 15
M  V30 35 1 24 18
M  V30 36 1 1 32
M  V30 37 1 1 33
M  V30 38 1 1 34
M  V30 39 1 9 35
M  V30 40 1 9 36
M  V30 41 1 10 37
M  V30 42 1 10 38
M  V30 43 1 12 39
M  V30 44 1 12 40
M  V30 45 1 13 41
M  V30 46 1 13 42
M  V30 47 1 14 43
M  V30 48 1 19 44
M  V30 49 1 22 45
M  V30 50 1 23 46
M  V30 51 1 25 47
M  V30 52 1 25 48
M  V30 53 1 26 49
M  V30 54 1 26 50
M  V30 55 1 27 51
M  V30 56 1 27 52
M  V30 57 1 28 53
M  V30 58 1 28 54
M  V30 59 1 29 55
M  V30 60 1 29 56
M  V30 61 1 30 57
M  V30 62 1 31 58
M  V30 END BOND
M  V30 END CTAB
M  END
>  <Dataset>  (726) 
OralDrugs

>  <Ligand_Instance>  (726) 
nan

>  <PDB_ID>  (726) 
nan

>  <Standardized_SMILES>  (726) 
Cc1nc2n(c(=O)c1CCN1CCC(c3noc4cc(F)ccc34)CC1)CCCC2O

>  <Name>  (726) 
Paliperidone

>  <Pocket>  (726) 
nan

>  <ATP_Site>  (726) 
nan

>  <Peripheral>  (726) 
nan

>  <Num_H_Atoms_ProtBoundConf>  (726) 
nan

>  <Num_Resolved_Atoms>  (726) 
nan

>  <Num_Not_Resolved_Atoms>  (726) 
nan

$$$$
CHEMBL1189679
     RDKit          3D

  0  0  0  0  0  0  0  0  0  0999 V3000
M  V30 BEGIN CTAB
M  V30 COUNTS 46 50 0 0 0
M  V30 BEGIN ATOM
M  V30 1 O 0.046342 2.008548 0.290074 0
M  V30 2 C 0.545976 0.918371 0.646743 0
M  V30 3 C 1.119701 0.726396 1.997774 0
M  V30 4 C 1.060527 1.833487 2.848060 0
M  V30 5 C 1.593844 1.664845 4.131366 0
M  V30 6 C 2.142382 0.441941 4.494156 0
M  V30 7 C 2.193638 -0.637936 3.647091 0
M  V30 8 C 1.675691 -0.501304 2.375650 0
M  V30 9 C 1.685594 -1.618474 1.364973 0 CFG=2
M  V30 10 C 2.869230 -2.469013 1.690563 0
M  V30 11 C 2.746603 -2.983283 3.096152 0
M  V30 12 C 2.797597 -1.895719 4.128173 0
M  V30 13 C 1.744462 -1.058875 -0.040499 0
M  V30 14 N 0.573689 -0.180512 -0.259040 0
M  V30 15 C -0.422506 -0.389533 -1.236285 0 CFG=2
M  V30 16 C -0.822699 0.626707 -2.188463 0
M  V30 17 N -2.271317 0.831019 -2.244562 0
M  V30 18 C -2.859410 -0.431264 -2.651186 0
M  V30 19 C -2.472992 -1.559766 -1.716814 0
M  V30 20 C -1.671882 -0.956117 -0.547496 0
M  V30 21 C -2.517969 0.095445 0.079404 0
M  V30 22 C -2.820208 1.157424 -0.948271 0
M  V30 23 H 0.627254 2.747044 2.513720 0
M  V30 24 H 1.571318 2.493528 4.826445 0
M  V30 25 H 2.551560 0.345238 5.508843 0
M  V30 26 H 0.749217 -2.182894 1.526540 0
M  V30 27 H 3.787572 -1.824984 1.680720 0
M  V30 28 H 2.972832 -3.331718 1.003164 0
M  V30 29 H 1.769377 -3.499473 3.184905 0
M  V30 30 H 3.528955 -3.765027 3.285106 0
M  V30 31 H 2.227054 -2.193230 5.039166 0
M  V30 32 H 3.860350 -1.772836 4.447502 0
M  V30 33 H 1.658008 -1.925314 -0.726186 0
M  V30 34 H 2.694220 -0.546316 -0.169549 0
M  V30 35 H -0.059322 -1.325966 -1.788017 0
M  V30 36 H -0.590656 0.307878 -3.231205 0
M  V30 37 H -0.297749 1.607408 -2.134427 0
M  V30 38 H -3.979190 -0.325239 -2.651667 0
M  V30 39 H -2.500056 -0.666497 -3.687615 0
M  V30 40 H -3.351821 -2.110552 -1.316764 0
M  V30 41 H -1.817636 -2.311379 -2.217686 0
M  V30 42 H -1.426576 -1.794026 0.126755 0
M  V30 43 H -2.065428 0.473837 1.003744 0
M  V30 44 H -3.473276 -0.440169 0.390511 0
M  V30 45 H -2.562599 2.184620 -0.601036 0
M  V30 46 H -3.921406 1.187213 -1.082635 0
M  V30 END ATOM
M  V30 BEGIN BOND
M  V30 1 2 1 2
M  V30 2 1 2 3
M  V30 3 2 3 4
M  V30 4 1 4 5
M  V30 5 2 5 6
M  V30 6 1 6 7
M  V30 7 2 7 8
M  V30 8 1 8 9
M  V30 9 1 9 10
M  V30 10 1 10 11
M  V30 11 1 11 12
M  V30 12 1 9 13
M  V30 13 1 13 14
M  V30 14 1 14 15
M  V30 15 1 15 16
M  V30 16 1 16 17
M  V30 17 1 17 18
M  V30 18 1 18 19
M  V30 19 1 19 20
M  V30 20 1 20 21
M  V30 21 1 21 22
M  V30 22 1 14 2
M  V30 23 1 20 15
M  V30 24 1 8 3
M  V30 25 1 22 17
M  V30 26 1 12 7
M  V30 27 1 4 23
M  V30 28 1 5 24
M  V30 29 1 6 25
M  V30 30 1 9 26 CFG=3
M  V30 31 1 10 27
M  V30 32 1 10 28
M  V30 33 1 11 29
M  V30 34 1 11 30
M  V30 35 1 12 31
M  V30 36 1 12 32
M  V30 37 1 13 33
M  V30 38 1 13 34
M  V30 39 1 15 35 CFG=3
M  V30 40 1 16 36
M  V30 41 1 16 37
M  V30 42 1 18 38
M  V30 43 1 18 39
M  V30 44 1 19 40
M  V30 45 1 19 41
M  V30 46 1 20 42
M  V30 47 1 21 43
M  V30 48 1 21 44
M  V30 49 1 22 45
M  V30 50 1 22 46
M  V30 END BOND
M  V30 END CTAB
M  END
>  <Dataset>  (727) 
OralDrugs

>  <Ligand_Instance>  (727) 
nan

>  <PDB_ID>  (727) 
nan

>  <Standardized_SMILES>  (727) 
O=C1c2cccc3c2[C@H](CCC3)CN1[C@@H]1CN2CCC1CC2

>  <Name>  (727) 
Palonosetron

>  <Pocket>  (727) 
nan

>  <ATP_Site>  (727) 
nan

>  <Peripheral>  (727) 
nan

>  <Num_H_Atoms_ProtBoundConf>  (727) 
nan

>  <Num_Resolved_Atoms>  (727) 
nan

>  <Num_Not_Resolved_Atoms>  (727) 
nan

$$$$
CHEMBL2105648
     RDKit          3D

  0  0  0  0  0  0  0  0  0  0999 V3000
M  V30 BEGIN CTAB
M  V30 COUNTS 61 64 0 0 0
M  V30 BEGIN ATOM
M  V30 1 C 2.617598 -1.431937 3.357077 0
M  V30 2 C 3.053270 -0.440253 2.294456 0
M  V30 3 C 4.241686 -0.983537 1.561291 0
M  V30 4 C 3.361117 0.859325 3.010908 0
M  V30 5 C 3.701362 1.960128 2.064297 0
M  V30 6 C 2.762815 2.162674 0.932725 0
M  V30 7 C 3.624459 2.413549 -0.312668 0
M  V30 8 C 1.976801 3.448049 1.155339 0
M  V30 9 C 1.841357 1.026948 0.694146 0
M  V30 10 C 0.825897 1.241750 -0.204950 0
M  V30 11 C -0.124216 0.267667 -0.539844 0
M  V30 12 C -1.152960 0.672364 -1.510345 0
M  V30 13 N -2.401987 1.000738 -0.833508 0
M  V30 14 C -2.556030 2.305622 -0.439953 0
M  V30 15 C -3.755895 2.547832 0.188955 0
M  V30 16 C -4.344851 1.301683 0.162839 0
M  V30 17 N -3.516936 0.465433 -0.435582 0
M  V30 18 C 0.024051 -0.919405 0.089117 0
M  V30 19 C -0.846431 -2.035897 -0.128184 0
M  V30 20 C -1.869389 -2.528509 -0.724407 0
M  V30 21 C -2.586860 -3.794045 -0.759397 0
M  V30 22 C -2.168304 -4.878235 0.020463 0
M  V30 23 C -2.892241 -6.074419 -0.049251 0
M  V30 24 C -3.983228 -6.127489 -0.882774 0
M  V30 25 C -4.764813 -7.355722 -0.982700 0
M  V30 26 O -4.421583 -8.352644 -0.291926 0
M  V30 27 O -5.870151 -7.452240 -1.814964 0
M  V30 28 C -4.378548 -5.046478 -1.643129 0
M  V30 29 C -3.682961 -3.860284 -1.591484 0
M  V30 30 C 1.051706 -1.138305 0.999833 0
M  V30 31 C 1.972180 -0.184123 1.319980 0
M  V30 32 H 2.623580 -2.481047 2.991814 0
M  V30 33 H 1.593089 -1.173984 3.681525 0
M  V30 34 H 3.254958 -1.300475 4.255906 0
M  V30 35 H 5.148139 -0.348076 1.673003 0
M  V30 36 H 4.027343 -1.105532 0.478896 0
M  V30 37 H 4.480631 -2.013213 1.929361 0
M  V30 38 H 2.426330 1.110049 3.584622 0
M  V30 39 H 4.177386 0.741046 3.723490 0
M  V30 40 H 3.767692 2.898116 2.682964 0
M  V30 41 H 4.764385 1.800341 1.728677 0
M  V30 42 H 3.463400 1.550635 -0.990938 0
M  V30 43 H 4.708390 2.401673 -0.080403 0
M  V30 44 H 3.323579 3.328504 -0.845453 0
M  V30 45 H 1.093926 3.267634 1.794373 0
M  V30 46 H 2.634957 4.119287 1.743317 0
M  V30 47 H 1.746115 3.958377 0.215523 0
M  V30 48 H 0.763616 2.234961 -0.680185 0
M  V30 49 H -1.309201 -0.053558 -2.308390 0
M  V30 50 H -0.768021 1.580693 -2.060013 0
M  V30 51 H -1.882057 3.157937 -0.551039 0
M  V30 52 H -4.171693 3.449797 0.607365 0
M  V30 53 H -5.314293 0.990217 0.546630 0
M  V30 54 H -0.617709 -2.966850 0.434546 0
M  V30 55 H -2.219366 -1.716201 -1.337030 0
M  V30 56 H -1.321233 -4.840391 0.668668 0
M  V30 57 H -2.571927 -6.928734 0.558722 0
M  V30 58 H -6.554267 -8.190583 -1.761290 0
M  V30 59 H -5.230840 -5.097736 -2.290231 0
M  V30 60 H -4.010205 -3.025193 -2.195670 0
M  V30 61 H 1.208566 -2.078548 1.530306 0
M  V30 END ATOM
M  V30 BEGIN BOND
M  V30 1 1 1 2
M  V30 2 1 2 3
M  V30 3 1 2 4
M  V30 4 1 4 5
M  V30 5 1 5 6
M  V30 6 1 6 7
M  V30 7 1 6 8
M  V30 8 1 6 9
M  V30 9 2 9 10
M  V30 10 1 10 11
M  V30 11 1 11 12
M  V30 12 1 12 13
M  V30 13 1 13 14
M  V30 14 2 14 15
M  V30 15 1 15 16
M  V30 16 2 16 17
M  V30 17 2 11 18
M  V30 18 1 18 19
M  V30 19 2 19 20
M  V30 20 1 20 21
M  V30 21 2 21 22
M  V30 22 1 22 23
M  V30 23 2 23 24
M  V30 24 1 24 25
M  V30 25 2 25 26
M  V30 26 1 25 27
M  V30 27 1 24 28
M  V30 28 2 28 29
M  V30 29 1 18 30
M  V30 30 2 30 31
M  V30 31 1 31 2
M  V30 32 1 31 9
M  V30 33 1 17 13
M  V30 34 1 29 21
M  V30 35 1 1 32
M  V30 36 1 1 33
M  V30 37 1 1 34
M  V30 38 1 3 35
M  V30 39 1 3 36
M  V30 40 1 3 37
M  V30 41 1 4 38
M  V30 42 1 4 39
M  V30 43 1 5 40
M  V30 44 1 5 41
M  V30 45 1 7 42
M  V30 46 1 7 43
M  V30 47 1 7 44
M  V30 48 1 8 45
M  V30 49 1 8 46
M  V30 50 1 8 47
M  V30 51 1 10 48
M  V30 52 1 12 49
M  V30 53 1 12 50
M  V30 54 1 14 51
M  V30 55 1 15 52
M  V30 56 1 16 53
M  V30 57 1 19 54
M  V30 58 1 20 55
M  V30 59 1 22 56
M  V30 60 1 23 57
M  V30 61 1 27 58
M  V30 62 1 28 59
M  V30 63 1 29 60
M  V30 64 1 30 61
M  V30 END BOND
M  V30 END CTAB
M  END
>  <Dataset>  (728) 
OralDrugs

>  <Ligand_Instance>  (728) 
nan

>  <PDB_ID>  (728) 
nan

>  <Standardized_SMILES>  (728) 
CC1(C)CCC(C)(C)c2cc(Cn3cccn3)c(/C=C/c3ccc(C(=O)O)cc3)cc21

>  <Name>  (728) 
Palovarotene

>  <Pocket>  (728) 
nan

>  <ATP_Site>  (728) 
nan

>  <Peripheral>  (728) 
nan

>  <Num_H_Atoms_ProtBoundConf>  (728) 
nan

>  <Num_Resolved_Atoms>  (728) 
nan

>  <Num_Not_Resolved_Atoms>  (728) 
nan

$$$$
CHEMBL483254
     RDKit          3D

  0  0  0  0  0  0  0  0  0  0999 V3000
M  V30 BEGIN CTAB
M  V30 COUNTS 49 51 0 0 0
M  V30 BEGIN ATOM
M  V30 1 C 4.953038 -2.693245 1.335340 0
M  V30 2 C 4.222425 -2.153230 0.142873 0
M  V30 3 N 3.953053 -2.810789 -1.014112 0
M  V30 4 C 3.282783 -2.011972 -1.859362 0
M  V30 5 C 2.775841 -2.171268 -3.131246 0
M  V30 6 C 2.113870 -1.186076 -3.796847 0
M  V30 7 C 1.974429 0.013181 -3.111032 0
M  V30 8 C 2.470040 0.210695 -1.832464 0
M  V30 9 C 3.130819 -0.813040 -1.201044 0
M  V30 10 C 3.711421 -0.851373 0.077503 0
M  V30 11 C 3.781445 0.244154 1.034813 0
M  V30 12 C 2.979202 0.178193 2.278803 0
M  V30 13 N 1.601736 0.083068 2.106482 0
M  V30 14 C 0.973380 -1.086849 1.653246 0
M  V30 15 C -0.498994 -0.740928 1.539944 0
M  V30 16 C -1.008934 -0.237311 0.349719 0
M  V30 17 C -2.351917 0.073400 0.286824 0
M  V30 18 C -3.214396 -0.090915 1.346792 0
M  V30 19 C -4.622363 0.262638 1.206340 0
M  V30 20 C -5.535970 0.151879 2.134287 0
M  V30 21 C -6.931604 0.518635 1.947929 0
M  V30 22 O -7.494822 0.980764 0.927633 0
M  V30 23 N -7.878820 0.371052 3.013716 0
M  V30 24 O -9.128938 0.756934 2.676316 0
M  V30 25 C -2.714564 -0.592903 2.538285 0
M  V30 26 C -1.365471 -0.903985 2.598323 0
M  V30 27 H 5.318578 -3.697122 1.059124 0
M  V30 28 H 5.830848 -2.060155 1.585180 0
M  V30 29 H 4.219808 -2.722019 2.165677 0
M  V30 30 H 4.244294 -3.798131 -1.180585 0
M  V30 31 H 2.910997 -3.129017 -3.624841 0
M  V30 32 H 1.692704 -1.252716 -4.792590 0
M  V30 33 H 1.450005 0.832856 -3.606726 0
M  V30 34 H 2.323438 1.163525 -1.366160 0
M  V30 35 H 3.574080 1.212965 0.474841 0
M  V30 36 H 4.859773 0.416389 1.376747 0
M  V30 37 H 3.395961 -0.628624 2.981325 0
M  V30 38 H 3.218959 1.123417 2.865460 0
M  V30 39 H 1.026751 0.900089 2.327948 0
M  V30 40 H 1.352402 -1.514726 0.743790 0
M  V30 41 H 1.009366 -1.933342 2.417370 0
M  V30 42 H -0.383565 -0.083694 -0.518824 0
M  V30 43 H -2.770703 0.471918 -0.646513 0
M  V30 44 H -4.982927 0.655784 0.265145 0
M  V30 45 H -5.244052 -0.233957 3.098423 0
M  V30 46 H -7.594384 -0.007346 3.961507 0
M  V30 47 H -9.741334 0.719846 3.478766 0
M  V30 48 H -3.312792 -0.746611 3.398168 0
M  V30 49 H -0.981995 -1.297489 3.533307 0
M  V30 END ATOM
M  V30 BEGIN BOND
M  V30 1 1 1 2
M  V30 2 1 2 3
M  V30 3 1 3 4
M  V30 4 2 4 5
M  V30 5 1 5 6
M  V30 6 2 6 7
M  V30 7 1 7 8
M  V30 8 2 8 9
M  V30 9 1 9 10
M  V30 10 1 10 11
M  V30 11 1 11 12
M  V30 12 1 12 13
M  V30 13 1 13 14
M  V30 14 1 14 15
M  V30 15 2 15 16
M  V30 16 1 16 17
M  V30 17 2 17 18
M  V30 18 1 18 19
M  V30 19 2 19 20
M  V30 20 1 20 21
M  V30 21 2 21 22
M  V30 22 1 21 23
M  V30 23 1 23 24
M  V30 24 1 18 25
M  V30 25 2 25 26
M  V30 26 2 10 2
M  V30 27 1 26 15
M  V30 28 1 9 4
M  V30 29 1 1 27
M  V30 30 1 1 28
M  V30 31 1 1 29
M  V30 32 1 3 30
M  V30 33 1 5 31
M  V30 34 1 6 32
M  V30 35 1 7 33
M  V30 36 1 8 34
M  V30 37 1 11 35
M  V30 38 1 11 36
M  V30 39 1 12 37
M  V30 40 1 12 38
M  V30 41 1 13 39
M  V30 42 1 14 40
M  V30 43 1 14 41
M  V30 44 1 16 42
M  V30 45 1 17 43
M  V30 46 1 19 44
M  V30 47 1 20 45
M  V30 48 1 23 46
M  V30 49 1 24 47
M  V30 50 1 25 48
M  V30 51 1 26 49
M  V30 END BOND
M  V30 END CTAB
M  END
>  <Dataset>  (729) 
OralDrugs

>  <Ligand_Instance>  (729) 
nan

>  <PDB_ID>  (729) 
nan

>  <Standardized_SMILES>  (729) 
Cc1[nH]c2ccccc2c1CCNCc1ccc(/C=C/C(=O)NO)cc1

>  <Name>  (729) 
Panobinostat

>  <Pocket>  (729) 
nan

>  <ATP_Site>  (729) 
nan

>  <Peripheral>  (729) 
nan

>  <Num_H_Atoms_ProtBoundConf>  (729) 
nan

>  <Num_Resolved_Atoms>  (729) 
nan

>  <Num_Not_Resolved_Atoms>  (729) 
nan

$$$$
CHEMBL1502
     RDKit          3D

  0  0  0  0  0  0  0  0  0  0999 V3000
M  V30 BEGIN CTAB
M  V30 COUNTS 41 43 0 0 0
M  V30 BEGIN ATOM
M  V30 1 C 2.375969 -3.580988 1.987543 0
M  V30 2 O 1.283285 -2.971178 1.338838 0
M  V30 3 C 1.058803 -2.936035 -0.010394 0
M  V30 4 C 1.915027 -3.518679 -0.925976 0
M  V30 5 C 1.538269 -3.390407 -2.250661 0
M  V30 6 N 0.420063 -2.744539 -2.610720 0
M  V30 7 C -0.422039 -2.174343 -1.752911 0
M  V30 8 C -1.605272 -1.482352 -2.298599 0
M  V30 9 S -1.298822 0.257628 -2.345252 0 CHG=1 VAL=3
M  V30 10 O 0.055717 0.452679 -3.360751 0 CHG=-1 VAL=1
M  V30 11 C -0.943741 0.886256 -0.757174 0
M  V30 12 N 0.321367 1.034857 -0.264003 0
M  V30 13 C 0.251868 1.545545 0.978092 0
M  V30 14 C 1.280685 1.855126 1.839783 0
M  V30 15 C 1.000440 2.376071 3.084239 0
M  V30 16 O 1.805289 2.772110 4.133941 0
M  V30 17 C 3.210657 2.697287 4.091715 0
M  V30 18 F 3.644682 1.876433 5.117060 0
M  V30 19 F 3.783088 3.961450 4.278604 0
M  V30 20 C -0.350665 2.560940 3.398327 0
M  V30 21 C -1.370803 2.244778 2.521358 0
M  V30 22 C -1.081062 1.723771 1.277389 0
M  V30 23 N -1.792253 1.311630 0.196330 0
M  V30 24 C -0.096728 -2.272063 -0.424381 0
M  V30 25 O -0.944783 -1.695850 0.506091 0
M  V30 26 C -2.027334 -2.378721 1.102836 0
M  V30 27 H 3.195429 -2.847277 2.212257 0
M  V30 28 H 2.789243 -4.400642 1.393847 0
M  V30 29 H 2.025159 -3.961769 2.978765 0
M  V30 30 H 2.806675 -4.031044 -0.608823 0
M  V30 31 H 2.209926 -3.848685 -2.982337 0
M  V30 32 H -2.507892 -1.674531 -1.656918 0
M  V30 33 H -1.801464 -1.796677 -3.340964 0
M  V30 34 H 2.338071 1.740457 1.666699 0
M  V30 35 H 3.598699 2.299149 3.136517 0
M  V30 36 H -0.741513 2.963291 4.341772 0
M  V30 37 H -2.421191 2.377001 2.737440 0
M  V30 38 H -2.832726 1.328154 0.130163 0
M  V30 39 H -1.942342 -2.526954 2.181245 0
M  V30 40 H -2.241321 -3.364735 0.608505 0
M  V30 41 H -2.933626 -1.763192 0.905591 0
M  V30 END ATOM
M  V30 BEGIN BOND
M  V30 1 1 1 2
M  V30 2 1 2 3
M  V30 3 2 3 4
M  V30 4 1 4 5
M  V30 5 2 5 6
M  V30 6 1 6 7
M  V30 7 1 7 8
M  V30 8 1 8 9
M  V30 9 1 9 10
M  V30 10 1 9 11
M  V30 11 2 11 12
M  V30 12 1 12 13
M  V30 13 2 13 14
M  V30 14 1 14 15
M  V30 15 1 15 16
M  V30 16 1 16 17
M  V30 17 1 17 18
M  V30 18 1 17 19
M  V30 19 2 15 20
M  V30 20 1 20 21
M  V30 21 2 21 22
M  V30 22 1 22 23
M  V30 23 2 7 24
M  V30 24 1 24 25
M  V30 25 1 25 26
M  V30 26 1 24 3
M  V30 27 1 23 11
M  V30 28 1 22 13
M  V30 29 1 1 27
M  V30 30 1 1 28
M  V30 31 1 1 29
M  V30 32 1 4 30
M  V30 33 1 5 31
M  V30 34 1 8 32
M  V30 35 1 8 33
M  V30 36 1 14 34
M  V30 37 1 17 35
M  V30 38 1 20 36
M  V30 39 1 21 37
M  V30 40 1 23 38
M  V30 41 1 26 39
M  V30 42 1 26 40
M  V30 43 1 26 41
M  V30 END BOND
M  V30 END CTAB
M  END
>  <Dataset>  (730) 
OralDrugs

>  <Ligand_Instance>  (730) 
nan

>  <PDB_ID>  (730) 
nan

>  <Standardized_SMILES>  (730) 
COc1ccnc(C[S+]([O-])c2nc3cc(OC(F)F)ccc3[nH]2)c1OC

>  <Name>  (730) 
Pantoprazole

>  <Pocket>  (730) 
nan

>  <ATP_Site>  (730) 
nan

>  <Peripheral>  (730) 
nan

>  <Num_H_Atoms_ProtBoundConf>  (730) 
nan

>  <Num_Resolved_Atoms>  (730) 
nan

>  <Num_Not_Resolved_Atoms>  (730) 
nan

$$$$
CHEMBL1100
     RDKit          3D

  0  0  0  0  0  0  0  0  0  0999 V3000
M  V30 BEGIN CTAB
M  V30 COUNTS 22 22 0 0 0
M  V30 BEGIN ATOM
M  V30 1 C 1.912873 0.622789 3.065278 0
M  V30 2 C 1.644931 0.798211 1.585065 0
M  V30 3 C 0.778109 -0.389408 1.146486 0
M  V30 4 C 1.481409 -1.681154 1.389736 0
M  V30 5 O -0.438641 -0.401455 1.868287 0
M  V30 6 C -1.451432 0.173684 1.118927 0
M  V30 7 O -2.601396 0.514127 1.537734 0
M  V30 8 N -0.964048 0.315669 -0.221331 0
M  V30 9 C -1.660066 0.867270 -1.371251 0
M  V30 10 C 0.365983 -0.185091 -0.271096 0
M  V30 11 O 1.030142 -0.400079 -1.318430 0
M  V30 12 H 0.987422 0.960866 3.596491 0
M  V30 13 H 2.055613 -0.460393 3.245906 0
M  V30 14 H 2.781026 1.228699 3.394771 0
M  V30 15 H 1.123490 1.748484 1.371452 0
M  V30 16 H 2.599028 0.796212 1.034896 0
M  V30 17 H 1.091661 -2.411908 0.640795 0
M  V30 18 H 2.583415 -1.632386 1.303928 0
M  V30 19 H 1.164639 -2.076314 2.376437 0
M  V30 20 H -1.807697 0.102179 -2.164700 0
M  V30 21 H -1.131352 1.781300 -1.766794 0
M  V30 22 H -2.658582 1.221117 -1.046329 0
M  V30 END ATOM
M  V30 BEGIN BOND
M  V30 1 1 1 2
M  V30 2 1 2 3
M  V30 3 1 3 4
M  V30 4 1 3 5
M  V30 5 1 5 6
M  V30 6 2 6 7
M  V30 7 1 6 8
M  V30 8 1 8 9
M  V30 9 1 8 10
M  V30 10 2 10 11
M  V30 11 1 10 3
M  V30 12 1 1 12
M  V30 13 1 1 13
M  V30 14 1 1 14
M  V30 15 1 2 15
M  V30 16 1 2 16
M  V30 17 1 4 17
M  V30 18 1 4 18
M  V30 19 1 4 19
M  V30 20 1 9 20
M  V30 21 1 9 21
M  V30 22 1 9 22
M  V30 END BOND
M  V30 END CTAB
M  END
>  <Dataset>  (731) 
OralDrugs

>  <Ligand_Instance>  (731) 
nan

>  <PDB_ID>  (731) 
nan

>  <Standardized_SMILES>  (731) 
CCC1(C)OC(=O)N(C)C1=O

>  <Name>  (731) 
Paramethadione

>  <Pocket>  (731) 
nan

>  <ATP_Site>  (731) 
nan

>  <Peripheral>  (731) 
nan

>  <Num_H_Atoms_ProtBoundConf>  (731) 
nan

>  <Num_Resolved_Atoms>  (731) 
nan

>  <Num_Not_Resolved_Atoms>  (731) 
nan

$$$$
CHEMBL1200342
     RDKit          3D

  0  0  0  0  0  0  0  0  0  0999 V3000
M  V30 BEGIN CTAB
M  V30 COUNTS 62 65 0 0 0
M  V30 BEGIN ATOM
M  V30 1 C 4.789429 -2.459612 2.291786 0
M  V30 2 C 5.042110 -1.734275 1.014001 0
M  V30 3 O 6.079340 -1.816574 0.300431 0
M  V30 4 O 4.056047 -0.897561 0.569035 0
M  V30 5 C 4.177725 -0.153797 -0.630536 0
M  V30 6 C 2.931411 0.669223 -0.845574 0
M  V30 7 O 3.128696 1.278591 -1.907292 0
M  V30 8 C 1.834246 0.617846 0.114593 0 CFG=1
M  V30 9 O 2.081181 -0.239974 1.186804 0
M  V30 10 C 1.388434 1.963730 0.649484 0 CFG=2
M  V30 11 C 2.177592 2.439631 1.826426 0
M  V30 12 C -0.076958 1.775956 1.059098 0
M  V30 13 C -0.325932 0.347582 0.761665 0 CFG=1
M  V30 14 C -1.735571 -0.035654 0.410714 0 CFG=2
M  V30 15 C -2.623398 0.412436 1.515961 0
M  V30 16 C -3.975255 -0.256150 1.514380 0 CFG=2
M  V30 17 F -4.671629 0.126152 2.621278 0
M  V30 18 C -3.801193 -1.730667 1.411106 0
M  V30 19 C -4.302529 -2.518360 2.349732 0
M  V30 20 C -4.087683 -3.935702 2.170964 0
M  V30 21 O -4.553625 -4.711037 3.048820 0
M  V30 22 C -3.366729 -4.494552 1.036579 0
M  V30 23 C -2.897679 -3.627997 0.141915 0
M  V30 24 C -3.036804 -2.165962 0.188413 0 CFG=1
M  V30 25 C -3.825421 -1.714866 -1.005073 0
M  V30 26 C -1.684059 -1.557782 0.304333 0 CFG=1
M  V30 27 C -0.785770 -1.995316 -0.797088 0 CFG=1
M  V30 28 O -1.465579 -1.990100 -2.001833 0
M  V30 29 C 0.530574 -1.301085 -0.842290 0
M  V30 30 C 0.516514 0.145588 -0.507094 0 CFG=2
M  V30 31 C 0.047430 1.019935 -1.621168 0
M  V30 32 H 3.835338 -3.053760 2.178646 0
M  V30 33 H 5.567411 -3.238331 2.479776 0
M  V30 34 H 4.702598 -1.776798 3.161151 0
M  V30 35 H 5.058330 0.541474 -0.554751 0
M  V30 36 H 4.375807 -0.830531 -1.472059 0
M  V30 37 H 2.547935 0.286305 1.907602 0
M  V30 38 H 1.441046 2.707237 -0.173475 0
M  V30 39 H 1.763937 1.981076 2.744355 0
M  V30 40 H 1.984957 3.539084 1.912115 0
M  V30 41 H 3.255290 2.321049 1.686009 0
M  V30 42 H -0.163597 1.920691 2.173136 0
M  V30 43 H -0.751301 2.496634 0.596731 0
M  V30 44 H 0.084693 -0.312652 1.523198 0
M  V30 45 H -2.026176 0.374147 -0.559667 0
M  V30 46 H -2.833004 1.505943 1.335406 0
M  V30 47 H -2.188659 0.250844 2.504721 0
M  V30 48 H -4.566724 0.059057 0.607106 0
M  V30 49 H -4.830417 -2.068048 3.175086 0
M  V30 50 H -3.228569 -5.551922 0.940208 0
M  V30 51 H -2.359494 -4.024806 -0.707636 0
M  V30 52 H -3.768384 -2.510477 -1.803777 0
M  V30 53 H -3.541742 -0.723114 -1.375499 0
M  V30 54 H -4.914552 -1.661570 -0.769098 0
M  V30 55 H -1.259523 -1.895115 1.275671 0
M  V30 56 H -0.553415 -3.083242 -0.599438 0
M  V30 57 H -0.861408 -2.145782 -2.781481 0
M  V30 58 H 0.887048 -1.381326 -1.911600 0
M  V30 59 H 1.328259 -1.846798 -0.271582 0
M  V30 60 H -0.445993 0.447860 -2.449667 0
M  V30 61 H 0.826292 1.628591 -2.109158 0
M  V30 62 H -0.732079 1.762395 -1.307892 0
M  V30 END ATOM
M  V30 BEGIN BOND
M  V30 1 1 1 2
M  V30 2 2 2 3
M  V30 3 1 2 4
M  V30 4 1 4 5
M  V30 5 1 5 6
M  V30 6 2 6 7
M  V30 7 1 6 8
M  V30 8 1 8 9 CFG=1
M  V30 9 1 8 10
M  V30 10 1 10 11
M  V30 11 1 10 12
M  V30 12 1 12 13
M  V30 13 1 13 14
M  V30 14 1 14 15
M  V30 15 1 15 16
M  V30 16 1 16 17
M  V30 17 1 16 18
M  V30 18 2 18 19
M  V30 19 1 19 20
M  V30 20 2 20 21
M  V30 21 1 20 22
M  V30 22 2 22 23
M  V30 23 1 23 24
M  V30 24 1 24 25 CFG=3
M  V30 25 1 24 26
M  V30 26 1 26 27
M  V30 27 1 27 28
M  V30 28 1 27 29
M  V30 29 1 29 30
M  V30 30 1 30 31 CFG=3
M  V30 31 1 30 8
M  V30 32 1 30 13
M  V30 33 1 26 14
M  V30 34 1 24 18
M  V30 35 1 1 32
M  V30 36 1 1 33
M  V30 37 1 1 34
M  V30 38 1 5 35
M  V30 39 1 5 36
M  V30 40 1 9 37
M  V30 41 1 10 38 CFG=3
M  V30 42 1 11 39
M  V30 43 1 11 40
M  V30 44 1 11 41
M  V30 45 1 12 42
M  V30 46 1 12 43
M  V30 47 1 13 44 CFG=1
M  V30 48 1 14 45 CFG=3
M  V30 49 1 15 46
M  V30 50 1 15 47
M  V30 51 1 16 48 CFG=3
M  V30 52 1 19 49
M  V30 53 1 22 50
M  V30 54 1 23 51
M  V30 55 1 25 52
M  V30 56 1 25 53
M  V30 57 1 25 54
M  V30 58 1 26 55 CFG=1
M  V30 59 1 27 56 CFG=1
M  V30 60 1 28 57
M  V30 61 1 29 58
M  V30 62 1 29 59
M  V30 63 1 31 60
M  V30 64 1 31 61
M  V30 65 1 31 62
M  V30 END BOND
M  V30 END CTAB
M  END
>  <Dataset>  (732) 
OralDrugs

>  <Ligand_Instance>  (732) 
nan

>  <PDB_ID>  (732) 
nan

>  <Standardized_SMILES>  (732) 
CC(=O)OCC(=O)[C@@]1(O)[C@H](C)C[C@H]2[C@@H]3C[C@H](F)C4=CC(=O)C=C[C@]4(C)[C@H]3[C@@H](O)C[C@@]21C

>  <Name>  (732) 
Paramethasone Acetate

>  <Pocket>  (732) 
nan

>  <ATP_Site>  (732) 
nan

>  <Peripheral>  (732) 
nan

>  <Num_H_Atoms_ProtBoundConf>  (732) 
nan

>  <Num_Resolved_Atoms>  (732) 
nan

>  <Num_Not_Resolved_Atoms>  (732) 
nan

$$$$
CHEMBL673
     RDKit          3D

  0  0  0  0  0  0  0  0  0  0999 V3000
M  V30 BEGIN CTAB
M  V30 COUNTS 25 25 0 0 0
M  V30 BEGIN ATOM
M  V30 1 C -1.820775 2.157904 3.553112 0
M  V30 2 C -0.926218 1.345915 3.571620 0
M  V30 3 C 0.187279 0.369607 3.588769 0
M  V30 4 N 0.635832 0.048409 2.270749 0
M  V30 5 C 1.286195 1.054784 1.534015 0
M  V30 6 C -0.106464 -0.937151 1.588967 0
M  V30 7 C 0.332580 -1.260829 0.218673 0
M  V30 8 C -0.292027 -0.481604 -0.747621 0
M  V30 9 C -0.019187 -0.630148 -2.093017 0
M  V30 10 C 0.909545 -1.589204 -2.489368 0
M  V30 11 C 1.499287 -2.331687 -1.517074 0
M  V30 12 C 1.266988 -2.228600 -0.158625 0
M  V30 13 H -2.621608 2.880031 3.553040 0
M  V30 14 H 1.010247 0.798842 4.175405 0
M  V30 15 H -0.196505 -0.563537 4.054338 0
M  V30 16 H 1.948999 1.618074 2.234622 0
M  V30 17 H 1.935710 0.577109 0.753801 0
M  V30 18 H 0.669128 1.793744 1.017099 0
M  V30 19 H -0.006601 -1.899022 2.174240 0
M  V30 20 H -1.208731 -0.723662 1.617601 0
M  V30 21 H -1.025936 0.287424 -0.545553 0
M  V30 22 H -0.499156 -0.031015 -2.867815 0
M  V30 23 H 1.195180 -1.782082 -3.518172 0
M  V30 24 H 2.233386 -3.097821 -1.781094 0
M  V30 25 H 1.698300 -2.780117 0.642251 0
M  V30 END ATOM
M  V30 BEGIN BOND
M  V30 1 3 1 2
M  V30 2 1 2 3
M  V30 3 1 3 4
M  V30 4 1 4 5
M  V30 5 1 4 6
M  V30 6 1 6 7
M  V30 7 2 7 8
M  V30 8 1 8 9
M  V30 9 2 9 10
M  V30 10 1 10 11
M  V30 11 2 11 12
M  V30 12 1 12 7
M  V30 13 1 1 13
M  V30 14 1 3 14
M  V30 15 1 3 15
M  V30 16 1 5 16
M  V30 17 1 5 17
M  V30 18 1 5 18
M  V30 19 1 6 19
M  V30 20 1 6 20
M  V30 21 1 8 21
M  V30 22 1 9 22
M  V30 23 1 10 23
M  V30 24 1 11 24
M  V30 25 1 12 25
M  V30 END BOND
M  V30 END CTAB
M  END
>  <Dataset>  (733) 
OralDrugs

>  <Ligand_Instance>  (733) 
nan

>  <PDB_ID>  (733) 
nan

>  <Standardized_SMILES>  (733) 
C#CCN(C)Cc1ccccc1

>  <Name>  (733) 
Pargyline

>  <Pocket>  (733) 
nan

>  <ATP_Site>  (733) 
nan

>  <Peripheral>  (733) 
nan

>  <Num_H_Atoms_ProtBoundConf>  (733) 
nan

>  <Num_Resolved_Atoms>  (733) 
nan

>  <Num_Not_Resolved_Atoms>  (733) 
nan

$$$$
CHEMBL1200622
     RDKit          3D

  0  0  0  0  0  0  0  0  0  0999 V3000
M  V30 BEGIN CTAB
M  V30 COUNTS 74 76 0 0 0
M  V30 BEGIN ATOM
M  V30 1 C -3.123799 3.907443 -0.439614 0
M  V30 2 C -2.707225 2.553753 -1.035478 0 CFG=2
M  V30 3 C -2.812028 1.592502 0.094294 0
M  V30 4 C -3.528529 0.474630 0.139235 0
M  V30 5 C -3.710954 -0.541472 1.181161 0 CFG=2
M  V30 6 C -5.199943 -0.678299 1.434081 0
M  V30 7 C -2.970679 -0.316603 2.460085 0
M  V30 8 C -3.313313 -1.500697 3.378407 0
M  V30 9 C -3.273453 0.976460 3.130289 0
M  V30 10 O -1.596866 -0.405049 2.244392 0
M  V30 11 C -1.340312 2.736043 -1.565360 0 CFG=1
M  V30 12 C -0.462316 3.143281 -0.371825 0
M  V30 13 C 0.509799 1.960067 -0.231485 0
M  V30 14 C 0.703103 1.656233 -1.676692 0 CFG=1
M  V30 15 C 1.306401 0.388693 -2.034527 0
M  V30 16 C 1.711496 -0.539025 -1.186100 0
M  V30 17 C 2.310342 -1.792630 -1.601536 0
M  V30 18 C 2.727897 -2.745908 -0.780735 0
M  V30 19 C 3.334041 -4.012215 -1.237013 0
M  V30 20 C 4.676988 -4.271975 -0.600745 0 CFG=1
M  V30 21 O 5.646324 -3.374918 -1.059101 0
M  V30 22 C 4.617227 -4.142448 0.908009 0
M  V30 23 C 4.042213 -2.797286 1.280934 0 CFG=2
M  V30 24 O 4.002594 -2.663357 2.655111 0
M  V30 25 C 2.648527 -2.681871 0.701855 0
M  V30 26 C 1.444275 0.194109 -3.476480 0
M  V30 27 C 0.734263 1.186446 -4.327026 0
M  V30 28 C -0.375456 1.965381 -3.752949 0
M  V30 29 C -0.683662 1.657690 -2.291436 0 CFG=2
M  V30 30 C -1.362023 0.331095 -2.295479 0
M  V30 31 H -2.530104 4.742670 -0.862406 0
M  V30 32 H -4.188797 4.144500 -0.707208 0
M  V30 33 H -2.995676 3.925589 0.663051 0
M  V30 34 H -3.403280 2.339561 -1.843803 0
M  V30 35 H -2.267232 1.760202 1.015501 0
M  V30 36 H -4.106804 0.248144 -0.776397 0
M  V30 37 H -3.395340 -1.571393 0.838805 0
M  V30 38 H -5.781952 0.127844 0.914381 0
M  V30 39 H -5.634581 -1.618069 1.086205 0
M  V30 40 H -5.396038 -0.504561 2.512718 0
M  V30 41 H -4.116094 -1.265991 4.085947 0
M  V30 42 H -3.505097 -2.389324 2.755996 0
M  V30 43 H -2.409490 -1.768756 4.000383 0
M  V30 44 H -4.039170 1.590454 2.612360 0
M  V30 45 H -3.751354 0.735535 4.126155 0
M  V30 46 H -2.350716 1.507848 3.393763 0
M  V30 47 H -1.344229 -1.307859 1.894121 0
M  V30 48 H -1.376558 3.640791 -2.233464 0
M  V30 49 H 0.124336 4.056962 -0.600488 0
M  V30 50 H -1.038391 3.325150 0.537326 0
M  V30 51 H 0.079837 1.152662 0.358730 0
M  V30 52 H 1.463933 2.335962 0.191723 0
M  V30 53 H 1.328440 2.466397 -2.113707 0
M  V30 54 H 1.558729 -0.284081 -0.146627 0
M  V30 55 H 2.440798 -1.995568 -2.655388 0
M  V30 56 H 2.659262 -4.823901 -0.844169 0
M  V30 57 H 3.456449 -4.077711 -2.326558 0
M  V30 58 H 4.972421 -5.318646 -0.808889 0
M  V30 59 H 5.146679 -2.569557 -1.339937 0
M  V30 60 H 4.079784 -4.968008 1.392688 0
M  V30 61 H 5.671742 -4.142595 1.269680 0
M  V30 62 H 4.727562 -2.024263 0.895957 0
M  V30 63 H 3.507963 -1.843132 2.907841 0
M  V30 64 H 2.116613 -1.803686 1.089426 0
M  V30 65 H 2.097651 -3.614053 1.024069 0
M  V30 66 H 2.552016 0.280220 -3.680591 0
M  V30 67 H 1.211371 -0.844466 -3.790168 0
M  V30 68 H 1.460814 1.901892 -4.801536 0
M  V30 69 H 0.315697 0.640446 -5.224114 0
M  V30 70 H -0.174162 3.057783 -3.777147 0
M  V30 71 H -1.345484 1.841432 -4.287109 0
M  V30 72 H -1.205979 -0.289494 -1.418074 0
M  V30 73 H -1.032547 -0.286309 -3.165742 0
M  V30 74 H -2.440494 0.538193 -2.543296 0
M  V30 END ATOM
M  V30 BEGIN BOND
M  V30 1 1 1 2
M  V30 2 1 2 3
M  V30 3 2 3 4
M  V30 4 1 4 5
M  V30 5 1 5 6
M  V30 6 1 5 7
M  V30 7 1 7 8
M  V30 8 1 7 9
M  V30 9 1 7 10
M  V30 10 1 2 11
M  V30 11 1 11 12
M  V30 12 1 12 13
M  V30 13 1 13 14
M  V30 14 1 14 15
M  V30 15 2 15 16
M  V30 16 1 16 17
M  V30 17 2 17 18
M  V30 18 1 18 19
M  V30 19 1 19 20
M  V30 20 1 20 21
M  V30 21 1 20 22
M  V30 22 1 22 23
M  V30 23 1 23 24
M  V30 24 1 23 25
M  V30 25 1 15 26
M  V30 26 1 26 27
M  V30 27 1 27 28
M  V30 28 1 28 29
M  V30 29 1 29 30 CFG=3
M  V30 30 1 29 11
M  V30 31 1 29 14
M  V30 32 1 25 18
M  V30 33 1 1 31
M  V30 34 1 1 32
M  V30 35 1 1 33
M  V30 36 1 2 34 CFG=3
M  V30 37 1 3 35
M  V30 38 1 4 36
M  V30 39 1 5 37 CFG=3
M  V30 40 1 6 38
M  V30 41 1 6 39
M  V30 42 1 6 40
M  V30 43 1 8 41
M  V30 44 1 8 42
M  V30 45 1 8 43
M  V30 46 1 9 44
M  V30 47 1 9 45
M  V30 48 1 9 46
M  V30 49 1 10 47
M  V30 50 1 11 48 CFG=3
M  V30 51 1 12 49
M  V30 52 1 12 50
M  V30 53 1 13 51
M  V30 54 1 13 52
M  V30 55 1 14 53 CFG=3
M  V30 56 1 16 54
M  V30 57 1 17 55
M  V30 58 1 19 56
M  V30 59 1 19 57
M  V30 60 1 20 58 CFG=1
M  V30 61 1 21 59
M  V30 62 1 22 60
M  V30 63 1 22 61
M  V30 64 1 23 62 CFG=3
M  V30 65 1 24 63
M  V30 66 1 25 64
M  V30 67 1 25 65
M  V30 68 1 26 66
M  V30 69 1 26 67
M  V30 70 1 27 68
M  V30 71 1 27 69
M  V30 72 1 28 70
M  V30 73 1 28 71
M  V30 74 1 30 72
M  V30 75 1 30 73
M  V30 76 1 30 74
M  V30 END BOND
M  V30 END CTAB
M  END
>  <Dataset>  (734) 
OralDrugs

>  <Ligand_Instance>  (734) 
nan

>  <PDB_ID>  (734) 
nan

>  <Standardized_SMILES>  (734) 
C[C@H](/C=C/[C@H](C)C(C)(C)O)[C@H]1CC[C@H]2/C(=C/C=C3C[C@@H](O)C[C@H](O)C3)CCC[C@]12C

>  <Name>  (734) 
Paricalcitol

>  <Pocket>  (734) 
nan

>  <ATP_Site>  (734) 
nan

>  <Peripheral>  (734) 
nan

>  <Num_H_Atoms_ProtBoundConf>  (734) 
nan

>  <Num_Resolved_Atoms>  (734) 
nan

>  <Num_Not_Resolved_Atoms>  (734) 
nan

$$$$
CHEMBL3391662
     RDKit          3D

  0  0  0  0  0  0  0  0  0  0999 V3000
M  V30 BEGIN CTAB
M  V30 COUNTS 98 105 0 0 0
M  V30 BEGIN ATOM
M  V30 1 C 7.514655 -4.832413 -5.541174 0
M  V30 2 C 6.192992 -4.387182 -5.008835 0
M  V30 3 C 6.126598 -4.036867 -3.673857 0
M  V30 4 N 4.950142 -3.619305 -3.138925 0
M  V30 5 C 3.813630 -3.535045 -3.899996 0
M  V30 6 C 2.519425 -3.072762 -3.370850 0
M  V30 7 O 1.483882 -3.015604 -4.063591 0
M  V30 8 N 2.520236 -2.685249 -1.997479 0
M  V30 9 C 1.241343 -2.234903 -1.518893 0 CFG=1
M  V30 10 C 0.910897 -3.226550 -0.380950 0
M  V30 11 C -0.311760 -2.830242 0.348679 0
M  V30 12 C -0.467109 -3.719626 1.584059 0
M  V30 13 C -1.625656 -3.207625 2.401869 0
M  V30 14 C -1.718915 -3.602586 3.801710 0
M  V30 15 C -0.890161 -3.001483 4.824284 0
M  V30 16 C 0.028006 -2.088334 5.095980 0
M  V30 17 C 0.458362 -1.290339 3.975186 0 CFG=2
M  V30 18 C 1.570001 -0.285985 4.357762 0
M  V30 19 C 0.250199 0.141906 3.887329 0 CFG=2
M  V30 20 C -0.660264 0.816244 4.820201 0
M  V30 21 O -1.488736 1.513134 4.124752 0
M  V30 22 N -0.816637 0.871590 6.201965 0
M  V30 23 S -1.946991 1.727223 7.144897 0
M  V30 24 O -1.934171 3.177700 6.813750 0
M  V30 25 O -3.355361 1.218700 6.990769 0
M  V30 26 C -1.533152 1.441909 8.874408 0
M  V30 27 C -0.160692 1.092871 9.230354 0
M  V30 28 C -1.226931 0.041002 9.263851 0
M  V30 29 N 0.117163 0.506033 2.457708 0
M  V30 30 C 0.860448 1.240283 1.495696 0
M  V30 31 O 1.535653 1.319567 2.549383 0
M  V30 32 C 0.497740 1.459667 0.067701 0 CFG=2
M  V30 33 C -0.833137 2.106250 -0.092161 0
M  V30 34 C -1.327287 1.508793 -1.399411 0 CFG=1
M  V30 35 O -0.745997 2.094699 -2.507680 0
M  V30 36 C -1.260749 2.420148 -3.723708 0
M  V30 37 N -2.503684 2.177885 -4.153432 0
M  V30 38 C -2.785875 2.600190 -5.420870 0
M  V30 39 C -4.095171 2.329609 -5.864032 0
M  V30 40 C -4.477604 2.716143 -7.153679 0
M  V30 41 C -3.589180 3.360149 -7.998942 0
M  V30 42 C -2.310790 3.622602 -7.560518 0
M  V30 43 C -1.945536 3.242757 -6.302676 0
M  V30 44 C -0.677601 3.470152 -5.810972 0
M  V30 45 C 0.233206 4.118548 -6.612106 0
M  V30 46 C 1.512887 4.391348 -6.186843 0
M  V30 47 C 1.920377 4.002052 -4.896010 0
M  V30 48 C 0.930347 3.350831 -4.156106 0
M  V30 49 C -0.360551 3.056568 -4.537388 0
M  V30 50 C -0.837920 0.048105 -1.250066 0
M  V30 51 N 0.446642 0.173699 -0.643390 0
M  V30 52 C 1.356585 -0.869976 -0.925644 0
M  V30 53 O 2.357876 -0.252203 -0.510990 0
M  V30 54 C 3.907655 -3.892716 -5.238443 0
M  V30 55 N 5.080990 -4.315934 -5.796810 0
M  V30 56 H 8.300333 -4.309019 -4.980374 0
M  V30 57 H 7.674106 -5.925158 -5.331899 0
M  V30 58 H 7.578819 -4.730244 -6.631135 0
M  V30 59 H 6.971002 -4.075814 -3.006289 0
M  V30 60 H 3.393356 -2.743116 -1.434411 0
M  V30 61 H 0.470367 -2.291374 -2.248589 0
M  V30 62 H 0.737853 -4.185486 -0.901648 0
M  V30 63 H 1.823864 -3.343153 0.200447 0
M  V30 64 H -1.180059 -2.859521 -0.298990 0
M  V30 65 H -0.227425 -1.806385 0.802373 0
M  V30 66 H -0.742600 -4.730507 1.135509 0
M  V30 67 H 0.404582 -3.889886 2.164432 0
M  V30 68 H -2.543508 -3.615419 1.877765 0
M  V30 69 H -1.691728 -2.116990 2.203485 0
M  V30 70 H -2.808547 -3.573204 4.089503 0
M  V30 71 H -1.529824 -4.731092 3.820639 0
M  V30 72 H -1.136476 -3.524003 5.752726 0
M  V30 73 H 0.419707 -1.971084 6.099369 0
M  V30 74 H 0.707005 -1.825947 3.008880 0
M  V30 75 H 2.480023 -0.387635 3.770065 0
M  V30 76 H 1.790445 -0.147750 5.435975 0
M  V30 77 H -0.071836 0.261651 6.648115 0
M  V30 78 H -2.197503 1.984903 9.559581 0
M  V30 79 H 0.616753 0.944547 8.443699 0
M  V30 80 H 0.241888 1.426802 10.201466 0
M  V30 81 H -1.577125 -0.287409 10.281754 0
M  V30 82 H -1.237209 -0.778811 8.532586 0
M  V30 83 H -0.783327 0.076150 2.163209 0
M  V30 84 H 1.309260 2.033848 -0.365925 0
M  V30 85 H -1.513617 1.942367 0.747445 0
M  V30 86 H -0.682557 3.207641 -0.200763 0
M  V30 87 H -2.413993 1.538733 -1.448517 0
M  V30 88 H -4.784964 1.834443 -5.212846 0
M  V30 89 H -5.489359 2.517643 -7.534198 0
M  V30 90 H -3.944885 3.640096 -9.004425 0
M  V30 91 H -1.679285 4.115115 -8.259514 0
M  V30 92 H 0.095137 4.478770 -7.606694 0
M  V30 93 H 2.295281 4.899031 -6.753258 0
M  V30 94 H 2.910444 4.194429 -4.513473 0
M  V30 95 H 1.286266 3.064713 -3.159151 0
M  V30 96 H -0.894138 -0.363194 -2.257947 0
M  V30 97 H -1.544659 -0.403071 -0.537604 0
M  V30 98 H 3.005255 -3.819508 -5.822591 0
M  V30 END ATOM
M  V30 BEGIN BOND
M  V30 1 1 1 2
M  V30 2 2 2 3
M  V30 3 1 3 4
M  V30 4 2 4 5
M  V30 5 1 5 6
M  V30 6 2 6 7
M  V30 7 1 6 8
M  V30 8 1 8 9
M  V30 9 1 9 10
M  V30 10 1 10 11
M  V30 11 1 11 12
M  V30 12 1 12 13
M  V30 13 1 13 14
M  V30 14 1 14 15
M  V30 15 2 15 16
M  V30 16 1 16 17
M  V30 17 1 17 18
M  V30 18 1 18 19
M  V30 19 1 19 20 CFG=1
M  V30 20 2 20 21
M  V30 21 1 20 22
M  V30 22 1 22 23
M  V30 23 2 23 24
M  V30 24 2 23 25
M  V30 25 1 23 26
M  V30 26 1 26 27
M  V30 27 1 27 28
M  V30 28 1 19 29
M  V30 29 1 29 30
M  V30 30 2 30 31
M  V30 31 1 30 32
M  V30 32 1 32 33
M  V30 33 1 33 34
M  V30 34 1 34 35
M  V30 35 1 35 36
M  V30 36 2 36 37
M  V30 37 1 37 38
M  V30 38 2 38 39
M  V30 39 1 39 40
M  V30 40 2 40 41
M  V30 41 1 41 42
M  V30 42 2 42 43
M  V30 43 1 43 44
M  V30 44 2 44 45
M  V30 45 1 45 46
M  V30 46 2 46 47
M  V30 47 1 47 48
M  V30 48 2 48 49
M  V30 49 1 34 50
M  V30 50 1 50 51
M  V30 51 1 51 52
M  V30 52 2 52 53
M  V30 53 1 5 54
M  V30 54 2 54 55
M  V30 55 1 55 2
M  V30 56 1 52 9
M  V30 57 1 19 17
M  V30 58 1 28 26
M  V30 59 1 51 32
M  V30 60 1 49 36
M  V30 61 1 43 38
M  V30 62 1 49 44
M  V30 63 1 1 56
M  V30 64 1 1 57
M  V30 65 1 1 58
M  V30 66 1 3 59
M  V30 67 1 8 60
M  V30 68 1 9 61 CFG=3
M  V30 69 1 10 62
M  V30 70 1 10 63
M  V30 71 1 11 64
M  V30 72 1 11 65
M  V30 73 1 12 66
M  V30 74 1 12 67
M  V30 75 1 13 68
M  V30 76 1 13 69
M  V30 77 1 14 70
M  V30 78 1 14 71
M  V30 79 1 15 72
M  V30 80 1 16 73
M  V30 81 1 17 74 CFG=3
M  V30 82 1 18 75
M  V30 83 1 18 76
M  V30 84 1 22 77
M  V30 85 1 26 78
M  V30 86 1 27 79
M  V30 87 1 27 80
M  V30 88 1 28 81
M  V30 89 1 28 82
M  V30 90 1 29 83
M  V30 91 1 32 84 CFG=3
M  V30 92 1 33 85
M  V30 93 1 33 86
M  V30 94 1 34 87 CFG=3
M  V30 95 1 39 88
M  V30 96 1 40 89
M  V30 97 1 41 90
M  V30 98 1 42 91
M  V30 99 1 45 92
M  V30 100 1 46 93
M  V30 101 1 47 94
M  V30 102 1 48 95
M  V30 103 1 50 96
M  V30 104 1 50 97
M  V30 105 1 54 98
M  V30 END BOND
M  V30 END CTAB
M  END
>  <Dataset>  (735) 
OralDrugs

>  <Ligand_Instance>  (735) 
nan

>  <PDB_ID>  (735) 
nan

>  <Standardized_SMILES>  (735) 
Cc1cnc(C(=O)N[C@H]2CCCCC/C=C\[C@@H]3C[C@@]3(C(=O)NS(=O)(=O)C3CC3)NC(=O)[C@@H]3C[C@@H](Oc4nc5ccccc5c5ccccc45)CN3C2=O)cn1

>  <Name>  (735) 
Paritaprevir

>  <Pocket>  (735) 
nan

>  <ATP_Site>  (735) 
nan

>  <Peripheral>  (735) 
nan

>  <Num_H_Atoms_ProtBoundConf>  (735) 
nan

>  <Num_Resolved_Atoms>  (735) 
nan

>  <Num_Not_Resolved_Atoms>  (735) 
nan

$$$$
CHEMBL370143
     RDKit          3D

  0  0  0  0  0  0  0  0  0  0999 V3000
M  V30 BEGIN CTAB
M  V30 COUNTS 87 90 0 0 0
M  V30 BEGIN ATOM
M  V30 1 N 0.973931 -0.811370 5.687462 0
M  V30 2 C 1.766968 -1.350367 4.624637 0
M  V30 3 C 3.067340 -0.582183 4.428838 0 CFG=2
M  V30 4 O 2.780479 0.693122 4.136419 0
M  V30 5 C 3.074028 1.180173 2.887985 0 CFG=2
M  V30 6 O 1.993733 0.969464 2.084202 0
M  V30 7 C 1.330015 2.070230 1.647140 0 CFG=1
M  V30 8 C 1.336798 2.098038 0.133795 0 CFG=1
M  V30 9 O 2.531849 1.665757 -0.424609 0
M  V30 10 C 0.193916 1.192265 -0.166287 0 CFG=2
M  V30 11 O -0.268144 1.194839 -1.443070 0
M  V30 12 C -0.211524 0.052102 -2.184268 0 CFG=2
M  V30 13 C 0.623266 0.310896 -3.419719 0 CFG=1
M  V30 14 O 1.969424 0.079082 -3.062023 0
M  V30 15 C 0.313773 -0.709669 -4.490008 0 CFG=2
M  V30 16 N 1.249752 -0.596317 -5.586190 0
M  V30 17 C -1.115841 -0.549143 -4.957829 0
M  V30 18 C -1.971959 0.148783 -3.946710 0 CFG=2
M  V30 19 N -1.852203 1.589439 -4.026726 0
M  V30 20 C -1.637143 -0.308574 -2.543051 0 CFG=1
M  V30 21 O -1.797624 -1.686178 -2.478976 0
M  V30 22 C -2.745814 -2.081938 -1.567335 0 CFG=1
M  V30 23 O -3.735797 -2.794358 -2.236678 0
M  V30 24 C -4.780102 -3.156311 -1.391707 0 CFG=2
M  V30 25 C -5.992132 -2.301176 -1.694106 0
M  V30 26 O -6.366026 -2.499470 -3.010913 0
M  V30 27 C -4.427563 -3.071972 0.069236 0 CFG=1
M  V30 28 O -5.445478 -3.691045 0.783831 0
M  V30 29 C -3.083590 -3.749428 0.260288 0 CFG=2
M  V30 30 O -2.765037 -3.811411 1.614635 0
M  V30 31 C -2.064199 -2.941760 -0.517229 0 CFG=1
M  V30 32 N -1.059303 -3.787432 -1.099545 0
M  V30 33 O -0.748429 1.454228 0.797448 0
M  V30 34 C -0.162451 2.033696 1.888831 0 CFG=2
M  V30 35 C -0.624657 3.498668 1.900256 0
M  V30 36 O -0.106772 4.210248 2.957338 0
M  V30 37 C 4.382706 0.648528 2.442819 0 CFG=2
M  V30 38 N 5.059763 1.378503 1.410419 0
M  V30 39 C 4.207634 -0.818641 2.182511 0 CFG=1
M  V30 40 O 5.354595 -1.400012 1.643618 0
M  V30 41 C 3.934221 -1.401088 3.563254 0 CFG=2
M  V30 42 O 3.460286 -2.708084 3.397662 0
M  V30 43 H 0.055693 -0.529272 5.263455 0
M  V30 44 H 0.735613 -1.511418 6.432971 0
M  V30 45 H 2.090016 -2.379951 4.946254 0
M  V30 46 H 1.224605 -1.499363 3.682989 0
M  V30 47 H 3.517710 -0.580658 5.467663 0
M  V30 48 H 3.202514 2.286798 3.031471 0
M  V30 49 H 1.784475 3.015042 2.002504 0
M  V30 50 H 1.123808 3.171723 -0.142754 0
M  V30 51 H 2.914903 2.385057 -0.964093 0
M  V30 52 H 0.561150 0.150988 0.026264 0
M  V30 53 H 0.226181 -0.821303 -1.674723 0
M  V30 54 H 0.504786 1.343021 -3.800159 0
M  V30 55 H 2.559346 0.785114 -3.428165 0
M  V30 56 H 0.421126 -1.722893 -4.054833 0
M  V30 57 H 0.776025 -0.512385 -6.513936 0
M  V30 58 H 1.994363 -1.331182 -5.576254 0
M  V30 59 H -1.585216 -1.496193 -5.248626 0
M  V30 60 H -1.079676 0.075412 -5.877462 0
M  V30 61 H -3.023455 -0.085614 -4.207402 0
M  V30 62 H -2.286012 2.013076 -3.188021 0
M  V30 63 H -2.247692 1.991198 -4.880616 0
M  V30 64 H -2.351552 0.140227 -1.810225 0
M  V30 65 H -3.155504 -1.152358 -1.095403 0
M  V30 66 H -5.022170 -4.218905 -1.598307 0
M  V30 67 H -6.789613 -2.579443 -0.975276 0
M  V30 68 H -5.657171 -1.237428 -1.521092 0
M  V30 69 H -6.405538 -3.491455 -3.133915 0
M  V30 70 H -4.310792 -2.004626 0.361023 0
M  V30 71 H -5.073054 -4.437366 1.345149 0
M  V30 72 H -3.071708 -4.773448 -0.139222 0
M  V30 73 H -2.073252 -4.458733 1.823093 0
M  V30 74 H -1.559721 -2.275075 0.209785 0
M  V30 75 H -1.421480 -4.320098 -1.922546 0
M  V30 76 H -0.762627 -4.475160 -0.380825 0
M  V30 77 H -0.453882 1.617234 2.847589 0
M  V30 78 H -1.748458 3.535452 1.935899 0
M  V30 79 H -0.362257 4.026723 0.962505 0
M  V30 80 H 0.700765 4.687737 2.649618 0
M  V30 81 H 5.071207 0.712062 3.340456 0
M  V30 82 H 4.774864 2.382113 1.507598 0
M  V30 83 H 6.082462 1.211833 1.486829 0
M  V30 84 H 3.311192 -1.032759 1.568119 0
M  V30 85 H 6.157054 -0.930271 2.020799 0
M  V30 86 H 4.961352 -1.527242 4.018240 0
M  V30 87 H 3.768117 -3.319030 4.101983 0
M  V30 END ATOM
M  V30 BEGIN BOND
M  V30 1 1 1 2
M  V30 2 1 2 3
M  V30 3 1 3 4
M  V30 4 1 4 5
M  V30 5 1 5 6
M  V30 6 1 6 7
M  V30 7 1 7 8
M  V30 8 1 8 9
M  V30 9 1 8 10
M  V30 10 1 10 11
M  V30 11 1 11 12
M  V30 12 1 12 13
M  V30 13 1 13 14
M  V30 14 1 13 15
M  V30 15 1 15 16
M  V30 16 1 15 17
M  V30 17 1 17 18
M  V30 18 1 18 19
M  V30 19 1 18 20
M  V30 20 1 20 21
M  V30 21 1 21 22
M  V30 22 1 22 23
M  V30 23 1 23 24
M  V30 24 1 24 25
M  V30 25 1 25 26
M  V30 26 1 24 27
M  V30 27 1 27 28
M  V30 28 1 27 29
M  V30 29 1 29 30
M  V30 30 1 29 31
M  V30 31 1 31 32
M  V30 32 1 10 33
M  V30 33 1 33 34
M  V30 34 1 34 35
M  V30 35 1 35 36
M  V30 36 1 5 37
M  V30 37 1 37 38
M  V30 38 1 37 39
M  V30 39 1 39 40
M  V30 40 1 39 41
M  V30 41 1 41 42
M  V30 42 1 41 3
M  V30 43 1 34 7
M  V30 44 1 20 12
M  V30 45 1 31 22
M  V30 46 1 1 43
M  V30 47 1 1 44
M  V30 48 1 2 45
M  V30 49 1 2 46
M  V30 50 1 3 47 CFG=1
M  V30 51 1 5 48 CFG=1
M  V30 52 1 7 49 CFG=1
M  V30 53 1 8 50 CFG=1
M  V30 54 1 9 51
M  V30 55 1 10 52 CFG=1
M  V30 56 1 12 53 CFG=1
M  V30 57 1 13 54 CFG=3
M  V30 58 1 14 55
M  V30 59 1 15 56 CFG=1
M  V30 60 1 16 57
M  V30 61 1 16 58
M  V30 62 1 17 59
M  V30 63 1 17 60
M  V30 64 1 18 61 CFG=3
M  V30 65 1 19 62
M  V30 66 1 19 63
M  V30 67 1 20 64 CFG=1
M  V30 68 1 22 65 CFG=1
M  V30 69 1 24 66 CFG=3
M  V30 70 1 25 67
M  V30 71 1 25 68
M  V30 72 1 26 69
M  V30 73 1 27 70 CFG=1
M  V30 74 1 28 71
M  V30 75 1 29 72 CFG=3
M  V30 76 1 30 73
M  V30 77 1 31 74 CFG=1
M  V30 78 1 32 75
M  V30 79 1 32 76
M  V30 80 1 34 77 CFG=1
M  V30 81 1 35 78
M  V30 82 1 35 79
M  V30 83 1 36 80
M  V30 84 1 37 81 CFG=1
M  V30 85 1 38 82
M  V30 86 1 38 83
M  V30 87 1 39 84 CFG=3
M  V30 88 1 40 85
M  V30 89 1 41 86 CFG=1
M  V30 90 1 42 87
M  V30 END BOND
M  V30 END CTAB
M  END
>  <Dataset>  (736) 
OralDrugs

>  <Ligand_Instance>  (736) 
nan

>  <PDB_ID>  (736) 
nan

>  <Standardized_SMILES>  (736) 
NC[C@@H]1O[C@H](O[C@H]2[C@@H](O)[C@H](O[C@@H]3[C@@H](O)[C@H](N)C[C@H](N)[C@H]3O[C@H]3O[C@H](CO)[C@@H](O)[C@H](O)[C@H]3N)O[C@@H]2CO)[C@H](N)[C@@H](O)[C@@H]1O

>  <Name>  (736) 
Paromomycin

>  <Pocket>  (736) 
nan

>  <ATP_Site>  (736) 
nan

>  <Peripheral>  (736) 
nan

>  <Num_H_Atoms_ProtBoundConf>  (736) 
nan

>  <Num_Resolved_Atoms>  (736) 
nan

>  <Num_Not_Resolved_Atoms>  (736) 
nan

$$$$
CHEMBL490
     RDKit          3D

  0  0  0  0  0  0  0  0  0  0999 V3000
M  V30 BEGIN CTAB
M  V30 COUNTS 44 47 0 0 0
M  V30 BEGIN ATOM
M  V30 1 F 1.371034 -5.616253 -2.132828 0
M  V30 2 C 1.697265 -4.426732 -1.554738 0
M  V30 3 C 2.634234 -3.604506 -2.182709 0
M  V30 4 C 2.896213 -2.407792 -1.505702 0
M  V30 5 C 2.320906 -2.008148 -0.322445 0
M  V30 6 C 2.656412 -0.731457 0.317943 0 CFG=2
M  V30 7 C 3.235380 -0.867708 1.697359 0
M  V30 8 C 2.698355 0.137919 2.673070 0
M  V30 9 N 2.570240 1.464682 2.178611 0
M  V30 10 C 2.211911 1.561562 0.777492 0
M  V30 11 C 1.492022 0.227089 0.457581 0 CFG=1
M  V30 12 C 0.725611 0.450951 -0.778774 0
M  V30 13 O -0.325935 1.329816 -0.570434 0
M  V30 14 C -1.387867 1.092624 0.240349 0
M  V30 15 C -2.201837 2.228602 0.199672 0
M  V30 16 C -3.393712 2.350283 0.912779 0
M  V30 17 C -3.843593 1.318385 1.722028 0
M  V30 18 C -3.044248 0.198384 1.763518 0
M  V30 19 C -1.876516 0.105217 1.051250 0
M  V30 20 O -3.607811 -0.745401 2.602735 0
M  V30 21 C -4.663563 -0.113968 3.307619 0
M  V30 22 O -4.913701 1.042911 2.555432 0
M  V30 23 C 1.414356 -2.912388 0.189363 0
M  V30 24 C 1.064681 -4.121607 -0.372082 0
M  V30 25 H 3.121270 -3.851929 -3.104482 0
M  V30 26 H 3.623669 -1.773337 -1.996508 0
M  V30 27 H 3.401765 -0.230284 -0.334594 0
M  V30 28 H 4.353933 -0.771845 1.699955 0
M  V30 29 H 3.015111 -1.868465 2.155347 0
M  V30 30 H 3.439352 0.185574 3.524662 0
M  V30 31 H 1.777815 -0.263314 3.138442 0
M  V30 32 H 1.823101 1.954362 2.720248 0
M  V30 33 H 3.163763 1.629608 0.210783 0
M  V30 34 H 1.560408 2.425041 0.547169 0
M  V30 35 H 0.845795 -0.022427 1.296767 0
M  V30 36 H 1.326003 0.890913 -1.611318 0
M  V30 37 H 0.232896 -0.508626 -1.134329 0
M  V30 38 H -2.065141 3.159942 -0.355670 0
M  V30 39 H -4.066456 3.200511 0.923332 0
M  V30 40 H -1.265178 -0.769197 1.063894 0
M  V30 41 H -4.311538 0.202943 4.311198 0
M  V30 42 H -5.567301 -0.766860 3.379709 0
M  V30 43 H 0.914049 -2.658741 1.136028 0
M  V30 44 H 0.344731 -4.787151 0.079864 0
M  V30 END ATOM
M  V30 BEGIN BOND
M  V30 1 1 1 2
M  V30 2 2 2 3
M  V30 3 1 3 4
M  V30 4 2 4 5
M  V30 5 1 5 6
M  V30 6 1 6 7
M  V30 7 1 7 8
M  V30 8 1 8 9
M  V30 9 1 9 10
M  V30 10 1 10 11
M  V30 11 1 11 12
M  V30 12 1 12 13
M  V30 13 1 13 14
M  V30 14 2 14 15
M  V30 15 1 15 16
M  V30 16 2 16 17
M  V30 17 1 17 18
M  V30 18 2 18 19
M  V30 19 1 18 20
M  V30 20 1 20 21
M  V30 21 1 21 22
M  V30 22 1 5 23
M  V30 23 2 23 24
M  V30 24 1 24 2
M  V30 25 1 11 6
M  V30 26 1 19 14
M  V30 27 1 22 17
M  V30 28 1 3 25
M  V30 29 1 4 26
M  V30 30 1 6 27 CFG=3
M  V30 31 1 7 28
M  V30 32 1 7 29
M  V30 33 1 8 30
M  V30 34 1 8 31
M  V30 35 1 9 32
M  V30 36 1 10 33
M  V30 37 1 10 34
M  V30 38 1 11 35 CFG=1
M  V30 39 1 12 36
M  V30 40 1 12 37
M  V30 41 1 15 38
M  V30 42 1 16 39
M  V30 43 1 19 40
M  V30 44 1 21 41
M  V30 45 1 21 42
M  V30 46 1 23 43
M  V30 47 1 24 44
M  V30 END BOND
M  V30 END CTAB
M  END
>  <Dataset>  (737) 
OralDrugs

>  <Ligand_Instance>  (737) 
nan

>  <PDB_ID>  (737) 
nan

>  <Standardized_SMILES>  (737) 
Fc1ccc([C@@H]2CCNC[C@H]2COc2ccc3c(c2)OCO3)cc1

>  <Name>  (737) 
Paroxetine

>  <Pocket>  (737) 
nan

>  <ATP_Site>  (737) 
nan

>  <Peripheral>  (737) 
nan

>  <Num_H_Atoms_ProtBoundConf>  (737) 
nan

>  <Num_Resolved_Atoms>  (737) 
nan

>  <Num_Not_Resolved_Atoms>  (737) 
nan

$$$$
CHEMBL477772
     RDKit          3D

  0  0  0  0  0  0  0  0  0  0999 V3000
M  V30 BEGIN CTAB
M  V30 COUNTS 54 57 0 0 0
M  V30 BEGIN ATOM
M  V30 1 C -0.101950 -2.413448 -3.010825 0
M  V30 2 C 0.663732 -2.601557 -1.767225 0
M  V30 3 C 1.713092 -1.732325 -1.518110 0
M  V30 4 C 2.481061 -1.856964 -0.377665 0
M  V30 5 C 2.147462 -2.881848 0.481546 0
M  V30 6 N 2.857324 -3.022439 1.732378 0
M  V30 7 C 2.997284 -1.776663 2.464361 0
M  V30 8 N 3.732829 -1.758059 3.588210 0
M  V30 9 C 3.832146 -0.597153 4.298082 0
M  V30 10 C 3.185237 0.553353 3.872318 0
M  V30 11 C 2.424403 0.531832 2.710003 0
M  V30 12 N 1.743735 1.656236 2.166861 0
M  V30 13 C 2.625543 2.798158 2.280528 0
M  V30 14 C 0.437151 1.632057 1.608995 0
M  V30 15 C -0.141143 2.726064 1.016085 0
M  V30 16 C -1.448473 2.670848 0.518338 0
M  V30 17 C -2.173699 1.500941 0.622538 0
M  V30 18 C -3.454256 1.197366 0.231105 0
M  V30 19 C -4.479912 2.031144 -0.455780 0
M  V30 20 N -3.626813 -0.100886 0.604354 0
M  V30 21 C -4.789740 -0.956916 0.459341 0
M  V30 22 N -2.521170 -0.557639 1.184917 0
M  V30 23 C -1.580203 0.396006 1.225760 0
M  V30 24 C -0.287361 0.467698 1.711479 0
M  V30 25 N 2.392175 -0.653011 2.088727 0
M  V30 26 C 1.104784 -3.747180 0.230332 0
M  V30 27 C 0.322384 -3.633915 -0.906881 0
M  V30 28 S -1.063314 -4.636943 -1.215754 0
M  V30 29 N -1.151158 -5.326898 -2.754797 0
M  V30 30 O -0.902121 -5.819786 -0.241177 0
M  V30 31 O -2.322098 -3.977901 -0.810316 0
M  V30 32 H 0.440945 -2.881484 -3.872715 0
M  V30 33 H -1.168624 -2.677622 -2.956252 0
M  V30 34 H -0.083726 -1.304971 -3.243938 0
M  V30 35 H 1.928695 -0.939862 -2.246055 0
M  V30 36 H 3.299715 -1.212025 -0.147331 0
M  V30 37 H 3.261101 -3.882818 2.133686 0
M  V30 38 H 4.437462 -0.618252 5.203477 0
M  V30 39 H 3.258113 1.460051 4.429081 0
M  V30 40 H 2.748201 3.100745 3.361729 0
M  V30 41 H 2.218709 3.719295 1.801404 0
M  V30 42 H 3.660234 2.589496 1.892882 0
M  V30 43 H 0.393613 3.657534 0.911552 0
M  V30 44 H -1.877288 3.546141 0.056338 0
M  V30 45 H -5.138084 1.378509 -1.081997 0
M  V30 46 H -5.123091 2.437023 0.352777 0
M  V30 47 H -4.040183 2.822787 -1.083718 0
M  V30 48 H -4.894027 -1.657514 1.310336 0
M  V30 49 H -5.692121 -0.333636 0.417785 0
M  V30 50 H -4.749957 -1.574792 -0.455524 0
M  V30 51 H 0.051049 -0.463862 2.158055 0
M  V30 52 H 0.887146 -4.547620 0.953934 0
M  V30 53 H -2.124313 -5.188576 -3.111235 0
M  V30 54 H -0.419541 -5.062171 -3.413300 0
M  V30 END ATOM
M  V30 BEGIN BOND
M  V30 1 1 1 2
M  V30 2 2 2 3
M  V30 3 1 3 4
M  V30 4 2 4 5
M  V30 5 1 5 6
M  V30 6 1 6 7
M  V30 7 2 7 8
M  V30 8 1 8 9
M  V30 9 2 9 10
M  V30 10 1 10 11
M  V30 11 1 11 12
M  V30 12 1 12 13
M  V30 13 1 12 14
M  V30 14 1 14 15
M  V30 15 2 15 16
M  V30 16 1 16 17
M  V30 17 2 17 18
M  V30 18 1 18 19
M  V30 19 1 18 20
M  V30 20 1 20 21
M  V30 21 1 20 22
M  V30 22 2 22 23
M  V30 23 1 23 24
M  V30 24 2 11 25
M  V30 25 1 5 26
M  V30 26 2 26 27
M  V30 27 1 27 28
M  V30 28 1 28 29
M  V30 29 2 28 30
M  V30 30 2 28 31
M  V30 31 1 27 2
M  V30 32 1 25 7
M  V30 33 2 24 14
M  V30 34 1 23 17
M  V30 35 1 1 32
M  V30 36 1 1 33
M  V30 37 1 1 34
M  V30 38 1 3 35
M  V30 39 1 4 36
M  V30 40 1 6 37
M  V30 41 1 9 38
M  V30 42 1 10 39
M  V30 43 1 13 40
M  V30 44 1 13 41
M  V30 45 1 13 42
M  V30 46 1 15 43
M  V30 47 1 16 44
M  V30 48 1 19 45
M  V30 49 1 19 46
M  V30 50 1 19 47
M  V30 51 1 21 48
M  V30 52 1 21 49
M  V30 53 1 21 50
M  V30 54 1 24 51
M  V30 55 1 26 52
M  V30 56 1 29 53
M  V30 57 1 29 54
M  V30 END BOND
M  V30 END CTAB
M  END
>  <Dataset>  (738) 
OralDrugs

>  <Ligand_Instance>  (738) 
nan

>  <PDB_ID>  (738) 
nan

>  <Standardized_SMILES>  (738) 
Cc1ccc(Nc2nccc(N(C)c3ccc4c(C)n(C)nc4c3)n2)cc1S(N)(=O)=O

>  <Name>  (738) 
Pazopanib

>  <Pocket>  (738) 
nan

>  <ATP_Site>  (738) 
nan

>  <Peripheral>  (738) 
nan

>  <Num_H_Atoms_ProtBoundConf>  (738) 
nan

>  <Num_Resolved_Atoms>  (738) 
nan

>  <Num_Not_Resolved_Atoms>  (738) 
nan

$$$$
CHEMBL3137308
     RDKit          3D

  0  0  0  0  0  0  0  0  0  0999 V3000
M  V30 BEGIN CTAB
M  V30 COUNTS 46 50 0 0 0
M  V30 BEGIN ATOM
M  V30 1 N 0.421595 -4.116695 -1.798493 0
M  V30 2 C 0.627228 -2.929641 -1.035898 0
M  V30 3 O -0.285434 -3.369210 -0.306960 0
M  V30 4 C 1.622477 -1.963572 -1.416427 0
M  V30 5 C 2.353328 -2.299422 -2.535163 0
M  V30 6 N 3.294130 -1.426928 -2.902787 0
M  V30 7 C 3.538803 -0.292178 -2.252227 0
M  V30 8 N 4.432759 0.681390 -2.482393 0
M  V30 9 C 4.349286 1.668867 -1.574633 0
M  V30 10 C 3.336244 1.261588 -0.741820 0
M  V30 11 C 2.807219 0.030916 -1.143539 0
M  V30 12 C 1.815941 -0.808591 -0.691003 0
M  V30 13 N 1.065204 -0.451944 0.445676 0
M  V30 14 C 0.050886 -0.660455 1.395210 0 CFG=2
M  V30 15 C -1.370199 -0.582329 0.887990 0 CFG=2
M  V30 16 C -1.934689 0.822698 0.895412 0
M  V30 17 C -1.913124 1.387584 2.286368 0
M  V30 18 C -0.428367 1.476017 2.661705 0
M  V30 19 C 0.133308 0.090933 2.693147 0 CFG=1
M  V30 20 C -0.659732 -0.693783 3.717372 0
M  V30 21 C -2.103959 -0.832318 3.266115 0 CFG=1
M  V30 22 O -2.764163 -1.704367 4.108192 0
M  V30 23 C -2.677523 0.559916 3.270678 0
M  V30 24 C -2.224105 -1.374785 1.856315 0
M  V30 25 H -0.209357 -4.337015 -2.608675 0
M  V30 26 H 0.885430 -5.072359 -1.716737 0
M  V30 27 H 2.213495 -3.201551 -3.115438 0
M  V30 28 H 5.117133 0.669514 -3.280902 0
M  V30 29 H 4.941090 2.565980 -1.519399 0
M  V30 30 H 2.977002 1.806313 0.119888 0
M  V30 31 H 1.384156 0.468962 0.840508 0
M  V30 32 H 0.155177 -1.747585 1.731161 0
M  V30 33 H -1.518312 -0.976590 -0.119484 0
M  V30 34 H -1.389132 1.519681 0.236133 0
M  V30 35 H -3.000400 0.718373 0.615452 0
M  V30 36 H -2.366305 2.400994 2.249198 0
M  V30 37 H -0.352663 1.891768 3.668946 0
M  V30 38 H 0.054119 2.108766 1.902964 0
M  V30 39 H 1.166070 0.154925 3.087050 0
M  V30 40 H -0.155544 -1.688605 3.831174 0
M  V30 41 H -0.681593 -0.168134 4.683063 0
M  V30 42 H -2.371907 -2.594500 3.978436 0
M  V30 43 H -2.464330 1.001132 4.281289 0
M  V30 44 H -3.741267 0.625499 3.049749 0
M  V30 45 H -3.281043 -1.206272 1.554771 0
M  V30 46 H -1.960635 -2.459459 1.815916 0
M  V30 END ATOM
M  V30 BEGIN BOND
M  V30 1 1 1 2
M  V30 2 2 2 3
M  V30 3 1 2 4
M  V30 4 2 4 5
M  V30 5 1 5 6
M  V30 6 2 6 7
M  V30 7 1 7 8
M  V30 8 1 8 9
M  V30 9 2 9 10
M  V30 10 1 10 11
M  V30 11 2 11 12
M  V30 12 1 12 13
M  V30 13 1 13 14
M  V30 14 1 14 15
M  V30 15 1 15 16
M  V30 16 1 16 17
M  V30 17 1 17 18
M  V30 18 1 18 19
M  V30 19 1 19 20
M  V30 20 1 20 21
M  V30 21 1 21 22 CFG=1
M  V30 22 1 21 23
M  V30 23 1 21 24
M  V30 24 1 12 4
M  V30 25 1 19 14
M  V30 26 1 11 7
M  V30 27 1 24 15
M  V30 28 1 23 17
M  V30 29 1 1 25
M  V30 30 1 1 26
M  V30 31 1 5 27
M  V30 32 1 8 28
M  V30 33 1 9 29
M  V30 34 1 10 30
M  V30 35 1 13 31
M  V30 36 1 14 32 CFG=1
M  V30 37 1 15 33 CFG=3
M  V30 38 1 16 34
M  V30 39 1 16 35
M  V30 40 1 17 36
M  V30 41 1 18 37
M  V30 42 1 18 38
M  V30 43 1 19 39 CFG=1
M  V30 44 1 20 40
M  V30 45 1 20 41
M  V30 46 1 22 42
M  V30 47 1 23 43
M  V30 48 1 23 44
M  V30 49 1 24 45
M  V30 50 1 24 46
M  V30 END BOND
M  V30 END CTAB
M  END
>  <Dataset>  (739) 
OralDrugs

>  <Ligand_Instance>  (739) 
nan

>  <PDB_ID>  (739) 
nan

>  <Standardized_SMILES>  (739) 
NC(=O)c1cnc2[nH]ccc2c1N[C@@H]1[C@@H]2CC3C[C@H]1C[C@@](O)(C3)C2

>  <Name>  (739) 
Peficitinib

>  <Pocket>  (739) 
nan

>  <ATP_Site>  (739) 
nan

>  <Peripheral>  (739) 
nan

>  <Num_H_Atoms_ProtBoundConf>  (739) 
nan

>  <Num_Resolved_Atoms>  (739) 
nan

>  <Num_Not_Resolved_Atoms>  (739) 
nan

$$$$
CHEMBL247951
     RDKit          3D

  0  0  0  0  0  0  0  0  0  0999 V3000
M  V30 BEGIN CTAB
M  V30 COUNTS 66 69 0 0 0
M  V30 BEGIN ATOM
M  V30 1 C 2.111020 -2.019929 3.907709 0
M  V30 2 C 3.203882 -1.035410 3.638350 0
M  V30 3 C 2.801595 0.144513 2.811989 0 CFG=1
M  V30 4 O 1.792828 0.926163 3.360054 0
M  V30 5 C 0.765769 1.570491 2.692850 0
M  V30 6 C -0.061630 2.288554 3.566087 0
M  V30 7 C -1.117313 2.985123 3.027702 0
M  V30 8 C -1.285275 2.925524 1.666031 0
M  V30 9 C -0.527825 2.248696 0.735439 0
M  V30 10 C -0.694914 2.293053 -0.700433 0
M  V30 11 N -1.691473 1.510179 -1.370149 0
M  V30 12 C -3.088299 1.642003 -1.250547 0
M  V30 13 C -3.872539 1.204875 -0.107349 0
M  V30 14 C -4.037612 -0.240029 0.197273 0
M  V30 15 O -3.078698 -1.090499 0.444205 0
M  V30 16 C -2.143481 -1.919125 0.683428 0
M  V30 17 C -1.053252 -2.389956 -0.002775 0
M  V30 18 C -0.148130 -3.309166 0.432767 0
M  V30 19 C -0.377585 -3.810026 1.719375 0
M  V30 20 O 0.525779 -4.752832 2.189398 0
M  V30 21 C 1.627256 -5.192703 1.409754 0
M  V30 22 C -1.429469 -3.422533 2.514520 0
M  V30 23 C -2.306835 -2.467838 1.970702 0
M  V30 24 C -1.191029 0.496466 -2.270149 0
M  V30 25 N -1.932815 -0.372612 -3.026034 0
M  V30 26 C -1.106802 -1.163535 -3.732898 0
M  V30 27 C -1.172902 -2.198123 -4.641828 0
M  V30 28 C -0.058537 -2.801799 -5.186482 0
M  V30 29 C 1.214967 -2.376620 -4.828600 0
M  V30 30 C 1.312728 -1.348304 -3.925373 0
M  V30 31 C 0.173570 -0.771741 -3.404164 0
M  V30 32 O 0.054724 0.198295 -2.549006 0
M  V30 33 C 0.546583 1.541665 1.305349 0
M  V30 34 C 4.036309 1.052138 2.825105 0
M  V30 35 O 4.056140 2.249646 3.260754 0
M  V30 36 O 5.179927 0.471776 2.314584 0
M  V30 37 H 2.159376 -2.833877 3.132889 0
M  V30 38 H 1.108829 -1.567596 3.942366 0
M  V30 39 H 2.340760 -2.536319 4.886849 0
M  V30 40 H 4.042381 -1.551423 3.086694 0
M  V30 41 H 3.642831 -0.693367 4.622236 0
M  V30 42 H 2.588573 -0.128616 1.763292 0
M  V30 43 H 0.071549 2.331931 4.630979 0
M  V30 44 H -1.786095 3.554114 3.655202 0
M  V30 45 H -2.136881 3.500117 1.281922 0
M  V30 46 H 0.329118 2.121344 -1.143372 0
M  V30 47 H -0.907832 3.366374 -1.056881 0
M  V30 48 H -3.605117 1.217357 -2.178605 0
M  V30 49 H -3.328092 2.765915 -1.385586 0
M  V30 50 H -3.647335 1.699084 0.883248 0
M  V30 51 H -4.939993 1.631896 -0.282128 0
M  V30 52 H -4.841927 -0.675618 -0.534067 0
M  V30 53 H -4.738518 -0.248933 1.146361 0
M  V30 54 H -0.920400 -1.990780 -0.971261 0
M  V30 55 H 0.681953 -3.613329 -0.190411 0
M  V30 56 H 2.253414 -4.355966 1.044976 0
M  V30 57 H 2.203522 -5.900593 2.032508 0
M  V30 58 H 1.287659 -5.784537 0.521566 0
M  V30 59 H -1.507467 -3.874920 3.491785 0
M  V30 60 H -3.100477 -2.249958 2.710078 0
M  V30 61 H -2.185746 -2.522760 -4.914918 0
M  V30 62 H -0.130268 -3.611990 -5.896757 0
M  V30 63 H 2.143529 -2.771925 -5.188804 0
M  V30 64 H 2.290520 -0.971679 -3.606162 0
M  V30 65 H 1.225081 0.967529 0.726469 0
M  V30 66 H 5.937174 1.087844 2.029132 0
M  V30 END ATOM
M  V30 BEGIN BOND
M  V30 1 1 1 2
M  V30 2 1 2 3
M  V30 3 1 3 4
M  V30 4 1 4 5
M  V30 5 2 5 6
M  V30 6 1 6 7
M  V30 7 2 7 8
M  V30 8 1 8 9
M  V30 9 1 9 10
M  V30 10 1 10 11
M  V30 11 1 11 12
M  V30 12 1 12 13
M  V30 13 1 13 14
M  V30 14 1 14 15
M  V30 15 1 15 16
M  V30 16 2 16 17
M  V30 17 1 17 18
M  V30 18 2 18 19
M  V30 19 1 19 20
M  V30 20 1 20 21
M  V30 21 1 19 22
M  V30 22 2 22 23
M  V30 23 1 11 24
M  V30 24 2 24 25
M  V30 25 1 25 26
M  V30 26 2 26 27
M  V30 27 1 27 28
M  V30 28 2 28 29
M  V30 29 1 29 30
M  V30 30 2 30 31
M  V30 31 1 31 32
M  V30 32 2 9 33
M  V30 33 1 3 34
M  V30 34 2 34 35
M  V30 35 1 34 36
M  V30 36 1 33 5
M  V30 37 1 23 16
M  V30 38 1 32 24
M  V30 39 1 31 26
M  V30 40 1 1 37
M  V30 41 1 1 38
M  V30 42 1 1 39
M  V30 43 1 2 40
M  V30 44 1 2 41
M  V30 45 1 3 42 CFG=3
M  V30 46 1 6 43
M  V30 47 1 7 44
M  V30 48 1 8 45
M  V30 49 1 10 46
M  V30 50 1 10 47
M  V30 51 1 12 48
M  V30 52 1 12 49
M  V30 53 1 13 50
M  V30 54 1 13 51
M  V30 55 1 14 52
M  V30 56 1 14 53
M  V30 57 1 17 54
M  V30 58 1 18 55
M  V30 59 1 21 56
M  V30 60 1 21 57
M  V30 61 1 21 58
M  V30 62 1 22 59
M  V30 63 1 23 60
M  V30 64 1 27 61
M  V30 65 1 28 62
M  V30 66 1 29 63
M  V30 67 1 30 64
M  V30 68 1 33 65
M  V30 69 1 36 66
M  V30 END BOND
M  V30 END CTAB
M  END
>  <Dataset>  (740) 
OralDrugs

>  <Ligand_Instance>  (740) 
nan

>  <PDB_ID>  (740) 
nan

>  <Standardized_SMILES>  (740) 
CC[C@@H](Oc1cccc(CN(CCCOc2ccc(OC)cc2)c2nc3ccccc3o2)c1)C(=O)O

>  <Name>  (740) 
Pemafibrate

>  <Pocket>  (740) 
nan

>  <ATP_Site>  (740) 
nan

>  <Peripheral>  (740) 
nan

>  <Num_H_Atoms_ProtBoundConf>  (740) 
nan

>  <Num_Resolved_Atoms>  (740) 
nan

>  <Num_Not_Resolved_Atoms>  (740) 
nan

$$$$
CHEMBL4297522
     RDKit          3D

  0  0  0  0  0  0  0  0  0  0999 V3000
M  V30 BEGIN CTAB
M  V30 COUNTS 62 66 0 0 0
M  V30 BEGIN ATOM
M  V30 1 C 0.941437 -2.878030 2.109697 0
M  V30 2 C -0.306876 -2.037990 2.411517 0
M  V30 3 N -0.476348 -0.926504 1.551414 0
M  V30 4 C 0.093727 0.355442 1.896190 0
M  V30 5 O 0.763167 0.495562 2.978613 0
M  V30 6 N -0.008210 1.543359 1.131139 0
M  V30 7 C 0.601784 2.755182 1.541696 0
M  V30 8 C 1.906940 3.064833 1.153513 0
M  V30 9 F 2.615330 2.196403 0.369503 0
M  V30 10 C 2.516212 4.241893 1.543344 0
M  V30 11 O 3.804057 4.494525 1.131110 0
M  V30 12 C 4.485312 5.683882 1.496824 0
M  V30 13 C 1.763786 5.085728 2.332502 0
M  V30 14 C 0.468904 4.798278 2.728531 0
M  V30 15 O -0.280688 5.654623 3.522996 0
M  V30 16 C 0.282566 6.877788 3.958447 0
M  V30 17 C -0.133145 3.620947 2.335544 0
M  V30 18 F -1.381635 3.306258 2.696756 0
M  V30 19 C -0.735560 1.558448 -0.089453 0
M  V30 20 C -1.314459 0.255618 -0.469689 0
M  V30 21 C -1.991826 0.270792 -1.661274 0
M  V30 22 N -2.565188 -0.887049 -2.101757 0
M  V30 23 C -2.449415 -2.021928 -1.349631 0
M  V30 24 N -2.933680 -3.246188 -1.622291 0
M  V30 25 C -2.539692 -4.031131 -0.569125 0
M  V30 26 C -2.939679 -5.486924 -0.587460 0
M  V30 27 N -1.971253 -6.306913 -1.246605 0
M  V30 28 C -1.787789 -5.893273 -2.644338 0
M  V30 29 C -0.785469 -6.829691 -3.281587 0
M  V30 30 O 0.439515 -6.647288 -2.634370 0
M  V30 31 C 0.340669 -7.057201 -1.301346 0
M  V30 32 C -0.651794 -6.127872 -0.635998 0
M  V30 33 C -1.824645 -3.237624 0.307365 0
M  V30 34 C -1.763988 -1.964559 -0.179332 0
M  V30 35 C -1.159496 -0.846950 0.336744 0
M  V30 36 H 1.874108 -2.400176 2.397893 0
M  V30 37 H 0.806623 -3.909680 2.466759 0
M  V30 38 H 0.976248 -2.926180 0.981171 0
M  V30 39 H -1.154390 -2.563387 2.816726 0
M  V30 40 H 0.056992 -1.538426 3.395872 0
M  V30 41 H 4.135708 6.555224 0.919438 0
M  V30 42 H 4.273540 5.923859 2.575479 0
M  V30 43 H 5.578388 5.569289 1.377134 0
M  V30 44 H 2.233537 6.006102 2.640136 0
M  V30 45 H 1.036730 6.625665 4.736030 0
M  V30 46 H 0.760123 7.352321 3.062971 0
M  V30 47 H -0.470158 7.593024 4.308068 0
M  V30 48 H -1.555336 2.308251 -0.111912 0
M  V30 49 H -0.010905 1.812801 -0.918365 0
M  V30 50 H -2.104566 1.146642 -2.283598 0
M  V30 51 H -3.494407 -3.500538 -2.481044 0
M  V30 52 H -3.925273 -5.593171 -1.030655 0
M  V30 53 H -3.007135 -5.844209 0.461539 0
M  V30 54 H -1.284393 -4.904315 -2.592829 0
M  V30 55 H -2.750902 -5.886470 -3.174852 0
M  V30 56 H -1.071842 -7.880295 -3.273085 0
M  V30 57 H -0.609452 -6.464370 -4.328996 0
M  V30 58 H 1.335791 -6.860607 -0.851608 0
M  V30 59 H 0.072732 -8.120637 -1.206364 0
M  V30 60 H -0.339756 -5.098147 -0.944121 0
M  V30 61 H -0.692793 -6.269405 0.455858 0
M  V30 62 H -1.492966 -3.787853 1.126872 0
M  V30 END ATOM
M  V30 BEGIN BOND
M  V30 1 1 1 2
M  V30 2 1 2 3
M  V30 3 1 3 4
M  V30 4 2 4 5
M  V30 5 1 4 6
M  V30 6 1 6 7
M  V30 7 2 7 8
M  V30 8 1 8 9
M  V30 9 1 8 10
M  V30 10 1 10 11
M  V30 11 1 11 12
M  V30 12 2 10 13
M  V30 13 1 13 14
M  V30 14 1 14 15
M  V30 15 1 15 16
M  V30 16 2 14 17
M  V30 17 1 17 18
M  V30 18 1 6 19
M  V30 19 1 19 20
M  V30 20 2 20 21
M  V30 21 1 21 22
M  V30 22 2 22 23
M  V30 23 1 23 24
M  V30 24 1 24 25
M  V30 25 1 25 26
M  V30 26 1 26 27
M  V30 27 1 27 28
M  V30 28 1 28 29
M  V30 29 1 29 30
M  V30 30 1 30 31
M  V30 31 1 31 32
M  V30 32 2 25 33
M  V30 33 1 33 34
M  V30 34 2 34 35
M  V30 35 1 35 3
M  V30 36 1 17 7
M  V30 37 1 35 20
M  V30 38 1 34 23
M  V30 39 1 32 27
M  V30 40 1 1 36
M  V30 41 1 1 37
M  V30 42 1 1 38
M  V30 43 1 2 39
M  V30 44 1 2 40
M  V30 45 1 12 41
M  V30 46 1 12 42
M  V30 47 1 12 43
M  V30 48 1 13 44
M  V30 49 1 16 45
M  V30 50 1 16 46
M  V30 51 1 16 47
M  V30 52 1 19 48
M  V30 53 1 19 49
M  V30 54 1 21 50
M  V30 55 1 24 51
M  V30 56 1 26 52
M  V30 57 1 26 53
M  V30 58 1 28 54
M  V30 59 1 28 55
M  V30 60 1 29 56
M  V30 61 1 29 57
M  V30 62 1 31 58
M  V30 63 1 31 59
M  V30 64 1 32 60
M  V30 65 1 32 61
M  V30 66 1 33 62
M  V30 END BOND
M  V30 END CTAB
M  END
>  <Dataset>  (741) 
OralDrugs

>  <Ligand_Instance>  (741) 
nan

>  <PDB_ID>  (741) 
nan

>  <Standardized_SMILES>  (741) 
CCN1C(=O)N(c2c(F)c(OC)cc(OC)c2F)Cc2cnc3[nH]c(CN4CCOCC4)cc3c21

>  <Name>  (741) 
Pemigatinib

>  <Pocket>  (741) 
nan

>  <ATP_Site>  (741) 
nan

>  <Peripheral>  (741) 
nan

>  <Num_H_Atoms_ProtBoundConf>  (741) 
nan

>  <Num_Resolved_Atoms>  (741) 
nan

>  <Num_Not_Resolved_Atoms>  (741) 
nan

$$$$
CHEMBL1290
     RDKit          3D

  0  0  0  0  0  0  0  0  0  0999 V3000
M  V30 BEGIN CTAB
M  V30 COUNTS 50 51 0 0 0
M  V30 BEGIN ATOM
M  V30 1 C 2.868770 -4.644267 2.719937 0
M  V30 2 C 1.812017 -3.918651 1.908678 0
M  V30 3 C 0.612737 -3.751565 2.812825 0
M  V30 4 C 1.355958 -4.715972 0.723926 0
M  V30 5 N 2.381377 -2.682760 1.487441 0
M  V30 6 C 1.564433 -1.825513 0.703954 0
M  V30 7 C 2.411676 -0.581495 0.391077 0 CFG=2
M  V30 8 O 2.801906 0.060645 1.535781 0
M  V30 9 C 1.761516 0.291920 -0.621162 0
M  V30 10 O 0.619851 0.951541 -0.318471 0
M  V30 11 C 0.181675 1.881741 0.514582 0
M  V30 12 C 0.753685 2.648060 1.502119 0
M  V30 13 C 0.143891 3.591417 2.291289 0
M  V30 14 C -1.199778 3.788464 2.060286 0
M  V30 15 C -1.835845 3.052086 1.082358 0
M  V30 16 C -1.174278 2.087845 0.288638 0
M  V30 17 C -2.092506 1.479071 -0.636767 0
M  V30 18 C -2.901194 0.304741 -0.127401 0
M  V30 19 C -3.748370 0.031893 -1.356073 0
M  V30 20 C -2.815960 0.291573 -2.497625 0
M  V30 21 C -1.518620 0.846828 -1.879563 0
M  V30 22 H 2.455529 -5.140652 3.626984 0
M  V30 23 H 3.643787 -3.941775 3.126853 0
M  V30 24 H 3.372428 -5.396313 2.102362 0
M  V30 25 H 0.795351 -2.944417 3.579617 0
M  V30 26 H -0.327993 -3.561869 2.290278 0
M  V30 27 H 0.547254 -4.684222 3.413955 0
M  V30 28 H 0.873238 -5.655758 1.122750 0
M  V30 29 H 2.143578 -4.952090 0.003099 0
M  V30 30 H 0.512247 -4.138601 0.268323 0
M  V30 31 H 3.028166 -2.228182 2.142255 0
M  V30 32 H 1.279528 -2.315122 -0.231095 0
M  V30 33 H 0.640577 -1.477741 1.205114 0
M  V30 34 H 3.361272 -0.967689 -0.093620 0
M  V30 35 H 3.692851 0.498285 1.430118 0
M  V30 36 H 1.619571 -0.324541 -1.552153 0
M  V30 37 H 2.575688 1.036493 -0.928543 0
M  V30 38 H 1.806726 2.489680 1.655948 0
M  V30 39 H 0.714583 4.121968 3.032472 0
M  V30 40 H -1.685269 4.531620 2.680312 0
M  V30 41 H -2.902494 3.323586 1.019049 0
M  V30 42 H -2.853971 2.216220 -1.027377 0
M  V30 43 H -3.488391 0.617607 0.751334 0
M  V30 44 H -2.292593 -0.605517 0.020711 0
M  V30 45 H -4.572806 0.799764 -1.305065 0
M  V30 46 H -4.158188 -0.997634 -1.350360 0
M  V30 47 H -3.287507 1.048086 -3.165484 0
M  V30 48 H -2.628799 -0.647020 -3.053079 0
M  V30 49 H -1.013318 1.534166 -2.550264 0
M  V30 50 H -0.932469 -0.067372 -1.631061 0
M  V30 END ATOM
M  V30 BEGIN BOND
M  V30 1 1 1 2
M  V30 2 1 2 3
M  V30 3 1 2 4
M  V30 4 1 2 5
M  V30 5 1 5 6
M  V30 6 1 6 7
M  V30 7 1 7 8
M  V30 8 1 7 9
M  V30 9 1 9 10
M  V30 10 1 10 11
M  V30 11 2 11 12
M  V30 12 1 12 13
M  V30 13 2 13 14
M  V30 14 1 14 15
M  V30 15 2 15 16
M  V30 16 1 16 17
M  V30 17 1 17 18
M  V30 18 1 18 19
M  V30 19 1 19 20
M  V30 20 1 20 21
M  V30 21 1 16 11
M  V30 22 1 21 17
M  V30 23 1 1 22
M  V30 24 1 1 23
M  V30 25 1 1 24
M  V30 26 1 3 25
M  V30 27 1 3 26
M  V30 28 1 3 27
M  V30 29 1 4 28
M  V30 30 1 4 29
M  V30 31 1 4 30
M  V30 32 1 5 31
M  V30 33 1 6 32
M  V30 34 1 6 33
M  V30 35 1 7 34 CFG=3
M  V30 36 1 8 35
M  V30 37 1 9 36
M  V30 38 1 9 37
M  V30 39 1 12 38
M  V30 40 1 13 39
M  V30 41 1 14 40
M  V30 42 1 15 41
M  V30 43 1 17 42
M  V30 44 1 18 43
M  V30 45 1 18 44
M  V30 46 1 19 45
M  V30 47 1 19 46
M  V30 48 1 20 47
M  V30 49 1 20 48
M  V30 50 1 21 49
M  V30 51 1 21 50
M  V30 END BOND
M  V30 END CTAB
M  END
>  <Dataset>  (742) 
OralDrugs

>  <Ligand_Instance>  (742) 
nan

>  <PDB_ID>  (742) 
nan

>  <Standardized_SMILES>  (742) 
CC(C)(C)NC[C@H](O)COc1ccccc1C1CCCC1

>  <Name>  (742) 
Penbutolol

>  <Pocket>  (742) 
nan

>  <ATP_Site>  (742) 
nan

>  <Peripheral>  (742) 
nan

>  <Num_H_Atoms_ProtBoundConf>  (742) 
nan

>  <Num_Resolved_Atoms>  (742) 
nan

>  <Num_Not_Resolved_Atoms>  (742) 
nan

$$$$
CHEMBL1430
     RDKit          3D

  0  0  0  0  0  0  0  0  0  0999 V3000
M  V30 BEGIN CTAB
M  V30 COUNTS 20 19 0 0 0
M  V30 BEGIN ATOM
M  V30 1 C 1.146595 1.407417 0.194663 0
M  V30 2 C 1.101338 0.162264 1.021965 0
M  V30 3 C 0.304990 0.338860 2.297612 0
M  V30 4 S 2.836081 -0.275458 1.426750 0
M  V30 5 C 0.589674 -0.971265 0.177586 0 CFG=1
M  V30 6 N 0.527809 -2.217652 0.949433 0
M  V30 7 C -0.733767 -0.710236 -0.435102 0
M  V30 8 O -1.708831 -1.497679 -0.263558 0
M  V30 9 O -0.919616 0.415209 -1.213420 0
M  V30 10 H 1.387054 1.119176 -0.864202 0
M  V30 11 H 0.198371 1.972058 0.149515 0
M  V30 12 H 1.962570 2.103278 0.502180 0
M  V30 13 H 0.140929 1.416155 2.533316 0
M  V30 14 H 0.801808 -0.182855 3.153510 0
M  V30 15 H -0.689033 -0.115500 2.179702 0
M  V30 16 H 3.523391 -0.312815 0.182961 0
M  V30 17 H 1.339767 -1.149090 -0.621676 0
M  V30 18 H 1.500543 -2.547362 1.132708 0
M  V30 19 H -0.074990 -2.125493 1.778869 0
M  V30 20 H -1.674591 0.499868 -1.889378 0
M  V30 END ATOM
M  V30 BEGIN BOND
M  V30 1 1 1 2
M  V30 2 1 2 3
M  V30 3 1 2 4
M  V30 4 1 2 5
M  V30 5 1 5 6
M  V30 6 1 5 7
M  V30 7 2 7 8
M  V30 8 1 7 9
M  V30 9 1 1 10
M  V30 10 1 1 11
M  V30 11 1 1 12
M  V30 12 1 3 13
M  V30 13 1 3 14
M  V30 14 1 3 15
M  V30 15 1 4 16
M  V30 16 1 5 17 CFG=3
M  V30 17 1 6 18
M  V30 18 1 6 19
M  V30 19 1 9 20
M  V30 END BOND
M  V30 END CTAB
M  END
>  <Dataset>  (743) 
OralDrugs

>  <Ligand_Instance>  (743) 
nan

>  <PDB_ID>  (743) 
nan

>  <Standardized_SMILES>  (743) 
CC(C)(S)[C@@H](N)C(=O)O

>  <Name>  (743) 
Penicillamine

>  <Pocket>  (743) 
nan

>  <ATP_Site>  (743) 
nan

>  <Peripheral>  (743) 
nan

>  <Num_H_Atoms_ProtBoundConf>  (743) 
nan

>  <Num_Resolved_Atoms>  (743) 
nan

>  <Num_Not_Resolved_Atoms>  (743) 
nan

$$$$
CHEMBL615
     RDKit          3D

  0  0  0  0  0  0  0  0  0  0999 V3000
M  V30 BEGIN CTAB
M  V30 COUNTS 42 44 0 0 0
M  V30 BEGIN ATOM
M  V30 1 C -1.614363 -3.424186 -1.922400 0
M  V30 2 C -1.076479 -3.561586 -0.526802 0
M  V30 3 C -1.752676 -4.678497 0.240418 0
M  V30 4 S -1.367284 -2.025473 0.436753 0
M  V30 5 C -0.105286 -2.512237 1.634302 0 CFG=2
M  V30 6 C 0.949073 -1.555745 2.006571 0 CFG=2
M  V30 7 N 1.319683 -0.550234 1.046305 0
M  V30 8 C 1.649676 0.803732 1.407039 0
M  V30 9 O 1.546955 0.896560 2.656900 0
M  V30 10 C 1.991665 1.615432 0.214438 0
M  V30 11 O 2.301197 2.923872 0.654003 0
M  V30 12 C 1.442390 3.757696 1.333261 0
M  V30 13 C 2.064782 4.977809 1.618944 0
M  V30 14 C 1.372890 5.977181 2.305772 0
M  V30 15 C 0.069872 5.782207 2.713650 0
M  V30 16 C -0.525729 4.569333 2.420933 0
M  V30 17 C 0.140013 3.582505 1.749285 0
M  V30 18 C 1.796084 -2.789155 1.782433 0
M  V30 19 O 2.838071 -3.221362 2.344316 0
M  V30 20 N 0.889579 -3.107863 0.757320 0
M  V30 21 C 0.404358 -3.596636 -0.470980 0 CFG=1
M  V30 22 C 0.919317 -4.988289 -0.718779 0
M  V30 23 O 1.636779 -5.275779 0.275046 0
M  V30 24 O 1.225922 -6.240009 -1.209376 0
M  V30 25 H -2.629594 -3.844762 -1.948347 0
M  V30 26 H -1.703080 -2.335422 -2.128460 0
M  V30 27 H -0.971496 -3.934625 -2.655995 0
M  V30 28 H -1.538184 -5.675494 -0.176904 0
M  V30 29 H -1.534863 -4.579684 1.316107 0
M  V30 30 H -2.847957 -4.530501 0.143461 0
M  V30 31 H -0.401509 -3.161841 2.450874 0
M  V30 32 H 0.927372 -1.235360 3.062462 0
M  V30 33 H 1.313691 -0.944218 0.058026 0
M  V30 34 H 2.899559 1.159216 -0.229439 0
M  V30 35 H 1.153994 1.642096 -0.513236 0
M  V30 36 H 3.065173 5.289328 1.374873 0
M  V30 37 H 1.790715 6.941331 2.559394 0
M  V30 38 H -0.522176 6.522043 3.252126 0
M  V30 39 H -1.540205 4.296238 2.686740 0
M  V30 40 H -0.241853 2.611399 1.477981 0
M  V30 41 H 0.758209 -3.013813 -1.370554 0
M  V30 42 H 1.770610 -6.357752 -2.076748 0
M  V30 END ATOM
M  V30 BEGIN BOND
M  V30 1 1 1 2
M  V30 2 1 2 3
M  V30 3 1 2 4
M  V30 4 1 4 5
M  V30 5 1 5 6
M  V30 6 1 6 7
M  V30 7 1 7 8
M  V30 8 2 8 9
M  V30 9 1 8 10
M  V30 10 1 10 11
M  V30 11 1 11 12
M  V30 12 2 12 13
M  V30 13 1 13 14
M  V30 14 2 14 15
M  V30 15 1 15 16
M  V30 16 2 16 17
M  V30 17 1 6 18
M  V30 18 2 18 19
M  V30 19 1 18 20
M  V30 20 1 20 21
M  V30 21 1 21 22
M  V30 22 2 22 23
M  V30 23 1 22 24
M  V30 24 1 21 2
M  V30 25 1 20 5
M  V30 26 1 17 12
M  V30 27 1 1 25
M  V30 28 1 1 26
M  V30 29 1 1 27
M  V30 30 1 3 28
M  V30 31 1 3 29
M  V30 32 1 3 30
M  V30 33 1 5 31 CFG=1
M  V30 34 1 6 32 CFG=1
M  V30 35 1 7 33
M  V30 36 1 10 34
M  V30 37 1 10 35
M  V30 38 1 13 36
M  V30 39 1 14 37
M  V30 40 1 15 38
M  V30 41 1 16 39
M  V30 42 1 17 40
M  V30 43 1 21 41 CFG=3
M  V30 44 1 24 42
M  V30 END BOND
M  V30 END CTAB
M  END
>  <Dataset>  (744) 
OralDrugs

>  <Ligand_Instance>  (744) 
nan

>  <PDB_ID>  (744) 
nan

>  <Standardized_SMILES>  (744) 
CC1(C)S[C@@H]2[C@H](NC(=O)COc3ccccc3)C(=O)N2[C@H]1C(=O)O

>  <Name>  (744) 
Penicillin V

>  <Pocket>  (744) 
nan

>  <ATP_Site>  (744) 
nan

>  <Peripheral>  (744) 
nan

>  <Num_H_Atoms_ProtBoundConf>  (744) 
nan

>  <Num_Resolved_Atoms>  (744) 
nan

>  <Num_Not_Resolved_Atoms>  (744) 
nan

$$$$
CHEMBL100116
     RDKit          3D

  0  0  0  0  0  0  0  0  0  0999 V3000
M  V30 BEGIN CTAB
M  V30 COUNTS 48 50 0 0 0
M  V30 BEGIN ATOM
M  V30 1 C 2.837106 -3.349145 -2.779098 0
M  V30 2 C 3.221354 -2.292742 -1.830792 0
M  V30 3 C 4.330861 -2.542110 -0.867692 0
M  V30 4 C 2.606739 -1.124844 -1.810316 0
M  V30 5 C 1.504178 -0.729108 -2.687778 0
M  V30 6 N 0.313907 -0.394675 -2.021566 0
M  V30 7 C -0.809412 -0.000268 -2.762655 0
M  V30 8 C -2.143280 -0.431317 -2.239270 0
M  V30 9 C -2.209662 -0.606549 -0.759924 0
M  V30 10 C -3.481143 -1.403367 -0.443655 0
M  V30 11 C -2.327603 0.717311 -0.135600 0
M  V30 12 C -3.530323 1.376994 0.069546 0
M  V30 13 C -3.608133 2.630295 0.663745 0
M  V30 14 O -4.807767 3.283901 0.866262 0
M  V30 15 C -2.426711 3.230417 1.061157 0
M  V30 16 C -1.218733 2.573685 0.857917 0
M  V30 17 C -1.163296 1.327580 0.265098 0
M  V30 18 C 0.213400 0.775330 0.127633 0
M  V30 19 C 0.211004 -0.549549 -0.636236 0
M  V30 20 C -1.033458 -1.333918 -0.202927 0
M  V30 21 C -0.871419 -2.726797 -0.717141 0
M  V30 22 H 2.614159 -2.994386 -3.804966 0
M  V30 23 H 1.969655 -3.906285 -2.368183 0
M  V30 24 H 3.673080 -4.098911 -2.863453 0
M  V30 25 H 5.041600 -3.262473 -1.318088 0
M  V30 26 H 3.863567 -3.062853 -0.003435 0
M  V30 27 H 4.826454 -1.600786 -0.554222 0
M  V30 28 H 2.889301 -0.345156 -1.111440 0
M  V30 29 H 1.844728 0.171549 -3.277372 0
M  V30 30 H 1.272134 -1.493987 -3.472304 0
M  V30 31 H -0.718313 -0.389582 -3.800216 0
M  V30 32 H -0.779663 1.114570 -2.862143 0
M  V30 33 H -2.888170 0.355087 -2.500217 0
M  V30 34 H -2.512806 -1.368436 -2.717681 0
M  V30 35 H -3.371246 -2.441381 -0.760751 0
M  V30 36 H -4.336997 -0.989303 -1.024511 0
M  V30 37 H -3.684866 -1.334139 0.648186 0
M  V30 38 H -4.445445 0.895195 -0.246411 0
M  V30 39 H -5.157813 3.495169 1.795514 0
M  V30 40 H -2.469974 4.209786 1.527109 0
M  V30 41 H -0.336701 3.110334 1.197146 0
M  V30 42 H 0.600807 0.603361 1.148814 0
M  V30 43 H 0.866472 1.496837 -0.402639 0
M  V30 44 H 1.075040 -1.126746 -0.248270 0
M  V30 45 H -1.089790 -1.304992 0.902201 0
M  V30 46 H 0.153186 -2.923491 -1.126103 0
M  V30 47 H -0.976207 -3.434020 0.130200 0
M  V30 48 H -1.564754 -2.978023 -1.544513 0
M  V30 END ATOM
M  V30 BEGIN BOND
M  V30 1 1 1 2
M  V30 2 1 2 3
M  V30 3 2 2 4 CFG=2
M  V30 4 1 4 5
M  V30 5 1 5 6
M  V30 6 1 6 7
M  V30 7 1 7 8
M  V30 8 1 8 9
M  V30 9 1 9 10
M  V30 10 1 9 11
M  V30 11 2 11 12
M  V30 12 1 12 13
M  V30 13 1 13 14
M  V30 14 2 13 15
M  V30 15 1 15 16
M  V30 16 2 16 17
M  V30 17 1 17 18
M  V30 18 1 18 19
M  V30 19 1 19 20
M  V30 20 1 20 21
M  V30 21 1 19 6
M  V30 22 1 20 9
M  V30 23 1 17 11
M  V30 24 1 1 22
M  V30 25 1 1 23
M  V30 26 1 1 24
M  V30 27 1 3 25
M  V30 28 1 3 26
M  V30 29 1 3 27
M  V30 30 1 4 28
M  V30 31 1 5 29
M  V30 32 1 5 30
M  V30 33 1 7 31
M  V30 34 1 7 32
M  V30 35 1 8 33
M  V30 36 1 8 34
M  V30 37 1 10 35
M  V30 38 1 10 36
M  V30 39 1 10 37
M  V30 40 1 12 38
M  V30 41 1 14 39
M  V30 42 1 15 40
M  V30 43 1 16 41
M  V30 44 1 18 42
M  V30 45 1 18 43
M  V30 46 1 19 44
M  V30 47 1 20 45
M  V30 48 1 21 46
M  V30 49 1 21 47
M  V30 50 1 21 48
M  V30 END BOND
M  V30 END CTAB
M  END
>  <Dataset>  (745) 
OralDrugs

>  <Ligand_Instance>  (745) 
nan

>  <PDB_ID>  (745) 
nan

>  <Standardized_SMILES>  (745) 
CC(C)=CCN1CCC2(C)c3cc(O)ccc3CC1C2C

>  <Name>  (745) 
Pentazocine

>  <Pocket>  (745) 
nan

>  <ATP_Site>  (745) 
nan

>  <Peripheral>  (745) 
nan

>  <Num_H_Atoms_ProtBoundConf>  (745) 
nan

>  <Num_Resolved_Atoms>  (745) 
nan

>  <Num_Not_Resolved_Atoms>  (745) 
nan

$$$$
CHEMBL628
     RDKit          3D

  0  0  0  0  0  0  0  0  0  0999 V3000
M  V30 BEGIN CTAB
M  V30 COUNTS 38 39 0 0 0
M  V30 BEGIN ATOM
M  V30 1 C -1.244728 -3.726402 3.240731 0
M  V30 2 C 0.113226 -4.111318 2.693380 0
M  V30 3 O 1.015147 -4.224977 3.540467 0
M  V30 4 C 0.669579 -4.397392 1.347615 0
M  V30 5 C 1.839556 -3.499204 1.027027 0
M  V30 6 C 1.437304 -2.035652 1.051727 0
M  V30 7 C 0.334538 -1.760935 0.041002 0
M  V30 8 N 0.009911 -0.351084 0.138843 0
M  V30 9 C 0.683868 0.534954 -0.645442 0
M  V30 10 O 1.574434 0.126789 -1.439384 0
M  V30 11 C 0.372880 1.876032 -0.553607 0
M  V30 12 C -0.583329 2.402914 0.284213 0
M  V30 13 N -0.605634 3.718378 0.099388 0
M  V30 14 C 0.319295 4.054956 -0.844470 0
M  V30 15 N 0.919393 2.891597 -1.239081 0
M  V30 16 C 1.949256 2.977818 -2.246417 0
M  V30 17 N -1.212616 1.470989 1.032726 0
M  V30 18 C -2.248918 1.970368 1.952579 0
M  V30 19 C -0.936552 0.153073 0.970246 0
M  V30 20 O -1.534496 -0.693362 1.673992 0
M  V30 21 H -1.215718 -2.695744 3.657377 0
M  V30 22 H -1.529527 -4.400578 4.064789 0
M  V30 23 H -2.024595 -3.821404 2.455379 0
M  V30 24 H 1.083093 -5.439216 1.316514 0
M  V30 25 H -0.119858 -4.369652 0.612727 0
M  V30 26 H 2.635032 -3.614657 1.781517 0
M  V30 27 H 2.265034 -3.707777 0.036755 0
M  V30 28 H 1.176320 -1.676223 2.068878 0
M  V30 29 H 2.342577 -1.477328 0.740990 0
M  V30 30 H 0.747652 -1.947516 -0.970413 0
M  V30 31 H -0.551227 -2.401384 0.210922 0
M  V30 32 H 0.411001 5.115074 -1.096710 0
M  V30 33 H 2.309708 2.000757 -2.610339 0
M  V30 34 H 2.862225 3.534778 -1.893070 0
M  V30 35 H 1.534616 3.545997 -3.108474 0
M  V30 36 H -2.605401 2.951788 1.659097 0
M  V30 37 H -3.001877 1.182480 2.083021 0
M  V30 38 H -1.716451 2.021927 2.947685 0
M  V30 END ATOM
M  V30 BEGIN BOND
M  V30 1 1 1 2
M  V30 2 2 2 3
M  V30 3 1 2 4
M  V30 4 1 4 5
M  V30 5 1 5 6
M  V30 6 1 6 7
M  V30 7 1 7 8
M  V30 8 1 8 9
M  V30 9 2 9 10
M  V30 10 1 9 11
M  V30 11 2 11 12
M  V30 12 1 12 13
M  V30 13 2 13 14
M  V30 14 1 14 15
M  V30 15 1 15 16
M  V30 16 1 12 17
M  V30 17 1 17 18
M  V30 18 1 17 19
M  V30 19 2 19 20
M  V30 20 1 19 8
M  V30 21 1 15 11
M  V30 22 1 1 21
M  V30 23 1 1 22
M  V30 24 1 1 23
M  V30 25 1 4 24
M  V30 26 1 4 25
M  V30 27 1 5 26
M  V30 28 1 5 27
M  V30 29 1 6 28
M  V30 30 1 6 29
M  V30 31 1 7 30
M  V30 32 1 7 31
M  V30 33 1 14 32
M  V30 34 1 16 33
M  V30 35 1 16 34
M  V30 36 1 16 35
M  V30 37 1 18 36
M  V30 38 1 18 37
M  V30 39 1 18 38
M  V30 END BOND
M  V30 END CTAB
M  END
>  <Dataset>  (746) 
OralDrugs

>  <Ligand_Instance>  (746) 
nan

>  <PDB_ID>  (746) 
nan

>  <Standardized_SMILES>  (746) 
CC(=O)CCCCn1c(=O)c2c(ncn2C)n(C)c1=O

>  <Name>  (746) 
Pentoxifylline

>  <Pocket>  (746) 
nan

>  <ATP_Site>  (746) 
nan

>  <Peripheral>  (746) 
nan

>  <Num_H_Atoms_ProtBoundConf>  (746) 
nan

>  <Num_Resolved_Atoms>  (746) 
nan

>  <Num_Not_Resolved_Atoms>  (746) 
nan

$$$$
CHEMBL1214124
     RDKit          3D

  0  0  0  0  0  0  0  0  0  0999 V3000
M  V30 BEGIN CTAB
M  V30 COUNTS 42 45 0 0 0
M  V30 BEGIN ATOM
M  V30 1 N 3.229857 -2.115501 3.221985 0
M  V30 2 C 3.370235 -2.283062 2.085406 0
M  V30 3 C 3.537988 -2.501827 0.672579 0
M  V30 4 C 4.615882 -3.217322 0.193038 0
M  V30 5 C 4.775481 -3.427363 -1.174722 0
M  V30 6 C 3.802946 -2.880960 -1.977209 0
M  V30 7 C 2.730315 -2.171839 -1.535882 0
M  V30 8 C 2.578659 -1.966287 -0.161908 0
M  V30 9 C 1.415736 -1.200493 0.279067 0
M  V30 10 C 1.540031 0.183672 0.395750 0
M  V30 11 C 0.455625 0.917459 0.809172 0
M  V30 12 C 0.613376 2.359065 0.922042 0
M  V30 13 C -0.375394 3.229774 1.321586 0
M  V30 14 C -0.186478 4.593455 1.416250 0
M  V30 15 C 1.057216 5.107378 1.093539 0
M  V30 16 C 2.037648 4.227147 0.695479 0
M  V30 17 N 1.812466 2.883557 0.614143 0
M  V30 18 C -0.714135 0.246343 1.091691 0
M  V30 19 N -0.854677 -1.089458 0.985377 0
M  V30 20 C -2.072801 -1.763669 1.282335 0
M  V30 21 C -3.149150 -1.561789 0.440798 0
M  V30 22 C -4.360615 -2.210597 0.706059 0
M  V30 23 C -4.373728 -3.024101 1.825117 0
M  V30 24 C -3.310483 -3.239557 2.678601 0
M  V30 25 C -2.123437 -2.586427 2.394600 0
M  V30 26 C 0.209691 -1.820447 0.578392 0
M  V30 27 O 0.106916 -3.070245 0.470145 0
M  V30 28 H 5.362150 -3.632690 0.857682 0
M  V30 29 H 5.617386 -3.987222 -1.561948 0
M  V30 30 H 3.963609 -3.067844 -3.048225 0
M  V30 31 H 2.001314 -1.769115 -2.222706 0
M  V30 32 H 2.495127 0.629865 0.153704 0
M  V30 33 H -1.344112 2.825156 1.572460 0
M  V30 34 H -0.956835 5.264629 1.726735 0
M  V30 35 H 1.297037 6.168927 1.138877 0
M  V30 36 H 3.043236 4.532797 0.422261 0
M  V30 37 H -1.578937 0.807177 1.418672 0
M  V30 38 H -3.085659 -0.917335 -0.417980 0
M  V30 39 H -5.231740 -2.088416 0.082006 0
M  V30 40 H -5.323289 -3.517279 2.011773 0
M  V30 41 H -3.470566 -3.901699 3.511420 0
M  V30 42 H -1.293000 -2.756401 3.063550 0
M  V30 END ATOM
M  V30 BEGIN BOND
M  V30 1 3 1 2
M  V30 2 1 2 3
M  V30 3 2 3 4
M  V30 4 1 4 5
M  V30 5 2 5 6
M  V30 6 1 6 7
M  V30 7 2 7 8
M  V30 8 1 8 9
M  V30 9 2 9 10
M  V30 10 1 10 11
M  V30 11 1 11 12
M  V30 12 2 12 13
M  V30 13 1 13 14
M  V30 14 2 14 15
M  V30 15 1 15 16
M  V30 16 2 16 17
M  V30 17 2 11 18
M  V30 18 1 18 19
M  V30 19 1 19 20
M  V30 20 2 20 21
M  V30 21 1 21 22
M  V30 22 2 22 23
M  V30 23 1 23 24
M  V30 24 2 24 25
M  V30 25 1 19 26
M  V30 26 2 26 27
M  V30 27 1 8 3
M  V30 28 1 26 9
M  V30 29 1 17 12
M  V30 30 1 25 20
M  V30 31 1 4 28
M  V30 32 1 5 29
M  V30 33 1 6 30
M  V30 34 1 7 31
M  V30 35 1 10 32
M  V30 36 1 13 33
M  V30 37 1 14 34
M  V30 38 1 15 35
M  V30 39 1 16 36
M  V30 40 1 18 37
M  V30 41 1 21 38
M  V30 42 1 22 39
M  V30 43 1 23 40
M  V30 44 1 24 41
M  V30 45 1 25 42
M  V30 END BOND
M  V30 END CTAB
M  END
>  <Dataset>  (747) 
OralDrugs

>  <Ligand_Instance>  (747) 
nan

>  <PDB_ID>  (747) 
nan

>  <Standardized_SMILES>  (747) 
N#Cc1ccccc1-c1cc(-c2ccccn2)cn(-c2ccccc2)c1=O

>  <Name>  (747) 
Perampanel

>  <Pocket>  (747) 
nan

>  <ATP_Site>  (747) 
nan

>  <Peripheral>  (747) 
nan

>  <Num_H_Atoms_ProtBoundConf>  (747) 
nan

>  <Num_Resolved_Atoms>  (747) 
nan

>  <Num_Not_Resolved_Atoms>  (747) 
nan

$$$$
CHEMBL1200866
     RDKit          3D

  0  0  0  0  0  0  0  0  0  0999 V3000
M  V30 BEGIN CTAB
M  V30 COUNTS 26 25 0 0 0
M  V30 BEGIN ATOM
M  V30 1 F 3.624674 -1.575831 2.994183 0
M  V30 2 C 3.921718 -1.379942 1.649791 0
M  V30 3 F 3.418215 -2.476775 0.968935 0
M  V30 4 F 5.282886 -1.269689 1.462878 0
M  V30 5 C 3.176906 -0.166759 1.134287 0
M  V30 6 F 3.537530 0.958033 1.833850 0
M  V30 7 F 3.503914 -0.018158 -0.201416 0
M  V30 8 C 1.688297 -0.464351 1.280293 0
M  V30 9 F 1.469662 -1.580553 0.518762 0
M  V30 10 F 1.425754 -0.633689 2.620896 0
M  V30 11 C 0.855892 0.684936 0.781162 0
M  V30 12 F 1.173249 1.847582 1.520139 0
M  V30 13 F 1.125087 0.996521 -0.533614 0
M  V30 14 C -0.615506 0.532172 0.949971 0
M  V30 15 F -0.852237 0.384210 2.302768 0
M  V30 16 F -1.159835 1.804773 0.653166 0
M  V30 17 C -1.322004 -0.423297 0.074526 0
M  V30 18 F -0.967248 -1.724968 0.123284 0
M  V30 19 F -1.114658 -0.013217 -1.253164 0
M  V30 20 C -2.813148 -0.335901 0.314423 0
M  V30 21 F -3.214764 0.948730 0.029809 0
M  V30 22 F -3.113552 -0.556369 1.646104 0
M  V30 23 C -3.600932 -1.310070 -0.486407 0
M  V30 24 F -4.967556 -1.165681 -0.208129 0
M  V30 25 F -3.310377 -2.616116 -0.083072 0
M  V30 26 Br -3.376008 -1.182518 -2.375284 0
M  V30 END ATOM
M  V30 BEGIN BOND
M  V30 1 1 1 2
M  V30 2 1 2 3
M  V30 3 1 2 4
M  V30 4 1 2 5
M  V30 5 1 5 6
M  V30 6 1 5 7
M  V30 7 1 5 8
M  V30 8 1 8 9
M  V30 9 1 8 10
M  V30 10 1 8 11
M  V30 11 1 11 12
M  V30 12 1 11 13
M  V30 13 1 11 14
M  V30 14 1 14 15
M  V30 15 1 14 16
M  V30 16 1 14 17
M  V30 17 1 17 18
M  V30 18 1 17 19
M  V30 19 1 17 20
M  V30 20 1 20 21
M  V30 21 1 20 22
M  V30 22 1 20 23
M  V30 23 1 23 24
M  V30 24 1 23 25
M  V30 25 1 23 26
M  V30 END BOND
M  V30 END CTAB
M  END
>  <Dataset>  (748) 
OralDrugs

>  <Ligand_Instance>  (748) 
nan

>  <PDB_ID>  (748) 
nan

>  <Standardized_SMILES>  (748) 
FC(F)(F)C(F)(F)C(F)(F)C(F)(F)C(F)(F)C(F)(F)C(F)(F)C(F)(F)Br

>  <Name>  (748) 
Perflubron

>  <Pocket>  (748) 
nan

>  <ATP_Site>  (748) 
nan

>  <Peripheral>  (748) 
nan

>  <Num_H_Atoms_ProtBoundConf>  (748) 
nan

>  <Num_Resolved_Atoms>  (748) 
nan

>  <Num_Not_Resolved_Atoms>  (748) 
nan

$$$$
CHEMBL567
     RDKit          3D

  0  0  0  0  0  0  0  0  0  0999 V3000
M  V30 BEGIN CTAB
M  V30 COUNTS 53 56 0 0 0
M  V30 BEGIN ATOM
M  V30 1 O -2.986383 -3.095610 -4.278974 0
M  V30 2 C -2.089900 -2.379776 -3.449712 0
M  V30 3 C -0.993108 -1.751535 -4.241351 0
M  V30 4 N -0.030896 -1.000709 -3.480761 0
M  V30 5 C -0.566682 0.174572 -2.914980 0
M  V30 6 C -0.292638 0.514321 -1.519689 0
M  V30 7 N 0.595356 -0.313560 -0.748374 0
M  V30 8 C 1.296840 0.446344 0.259987 0
M  V30 9 C 2.185837 -0.358255 1.147839 0
M  V30 10 C 1.443481 -1.405963 1.982662 0
M  V30 11 N 0.472850 -0.809558 2.877881 0
M  V30 12 C 0.951200 -0.115820 4.019159 0
M  V30 13 C 2.293399 -0.119861 4.334793 0
M  V30 14 C 2.878255 0.472140 5.423420 0
M  V30 15 C 2.061629 1.155256 6.324054 0
M  V30 16 C 0.714082 1.195271 6.067274 0
M  V30 17 C 0.239860 0.576808 4.961680 0
M  V30 18 S -1.524298 0.701309 4.757789 0
M  V30 19 C -1.937370 -0.271606 3.321947 0
M  V30 20 C -3.276446 -0.341986 3.062804 0
M  V30 21 C -3.690455 -1.058641 1.970715 0
M  V30 22 C -2.747000 -1.676410 1.181550 0
M  V30 23 Cl -3.340227 -2.572108 -0.191719 0
M  V30 24 C -1.422284 -1.542605 1.531993 0
M  V30 25 C -0.917072 -0.845401 2.606447 0
M  V30 26 C 1.448896 -1.131055 -1.537665 0
M  V30 27 C 0.734403 -1.845031 -2.657927 0
M  V30 28 H -3.921897 -2.823373 -4.123297 0
M  V30 29 H -2.700234 -1.600559 -2.953338 0
M  V30 30 H -1.726776 -3.152521 -2.721907 0
M  V30 31 H -0.461783 -2.591912 -4.765706 0
M  V30 32 H -1.463973 -1.135359 -5.035960 0
M  V30 33 H -1.690217 0.268442 -3.098672 0
M  V30 34 H -0.181953 1.029142 -3.568570 0
M  V30 35 H -1.257740 0.608780 -0.955539 0
M  V30 36 H 0.133796 1.564531 -1.455879 0
M  V30 37 H 0.522350 1.019943 0.811240 0
M  V30 38 H 1.915894 1.183249 -0.279354 0
M  V30 39 H 2.912065 -0.888863 0.457613 0
M  V30 40 H 2.860226 0.286116 1.749226 0
M  V30 41 H 2.192617 -1.963401 2.611162 0
M  V30 42 H 1.006544 -2.108509 1.274869 0
M  V30 43 H 3.060723 -0.621417 3.767430 0
M  V30 44 H 3.924822 0.480358 5.685979 0
M  V30 45 H 2.471080 1.639593 7.198709 0
M  V30 46 H 0.102303 1.729969 6.780065 0
M  V30 47 H -4.030148 0.129924 3.662125 0
M  V30 48 H -4.741466 -1.129869 1.744507 0
M  V30 49 H -0.802729 -2.081347 0.831328 0
M  V30 50 H 2.313714 -0.535822 -1.904401 0
M  V30 51 H 1.885866 -1.928591 -0.908454 0
M  V30 52 H 1.564356 -2.272389 -3.295297 0
M  V30 53 H 0.197303 -2.720631 -2.251120 0
M  V30 END ATOM
M  V30 BEGIN BOND
M  V30 1 1 1 2
M  V30 2 1 2 3
M  V30 3 1 3 4
M  V30 4 1 4 5
M  V30 5 1 5 6
M  V30 6 1 6 7
M  V30 7 1 7 8
M  V30 8 1 8 9
M  V30 9 1 9 10
M  V30 10 1 10 11
M  V30 11 1 11 12
M  V30 12 2 12 13
M  V30 13 1 13 14
M  V30 14 2 14 15
M  V30 15 1 15 16
M  V30 16 2 16 17
M  V30 17 1 17 18
M  V30 18 1 18 19
M  V30 19 2 19 20
M  V30 20 1 20 21
M  V30 21 2 21 22
M  V30 22 1 22 23
M  V30 23 1 22 24
M  V30 24 2 24 25
M  V30 25 1 7 26
M  V30 26 1 26 27
M  V30 27 1 27 4
M  V30 28 1 25 11
M  V30 29 1 17 12
M  V30 30 1 25 19
M  V30 31 1 1 28
M  V30 32 1 2 29
M  V30 33 1 2 30
M  V30 34 1 3 31
M  V30 35 1 3 32
M  V30 36 1 5 33
M  V30 37 1 5 34
M  V30 38 1 6 35
M  V30 39 1 6 36
M  V30 40 1 8 37
M  V30 41 1 8 38
M  V30 42 1 9 39
M  V30 43 1 9 40
M  V30 44 1 10 41
M  V30 45 1 10 42
M  V30 46 1 13 43
M  V30 47 1 14 44
M  V30 48 1 15 45
M  V30 49 1 16 46
M  V30 50 1 20 47
M  V30 51 1 21 48
M  V30 52 1 24 49
M  V30 53 1 26 50
M  V30 54 1 26 51
M  V30 55 1 27 52
M  V30 56 1 27 53
M  V30 END BOND
M  V30 END CTAB
M  END
>  <Dataset>  (749) 
OralDrugs

>  <Ligand_Instance>  (749) 
nan

>  <PDB_ID>  (749) 
nan

>  <Standardized_SMILES>  (749) 
OCCN1CCN(CCCN2c3ccccc3Sc3ccc(Cl)cc32)CC1

>  <Name>  (749) 
Perphenazine

>  <Pocket>  (749) 
nan

>  <ATP_Site>  (749) 
nan

>  <Peripheral>  (749) 
nan

>  <Num_H_Atoms_ProtBoundConf>  (749) 
nan

>  <Num_Resolved_Atoms>  (749) 
nan

>  <Num_Not_Resolved_Atoms>  (749) 
nan

$$$$
CHEMBL3813873
     RDKit          3D

  0  0  0  0  0  0  0  0  0  0999 V3000
M  V30 BEGIN CTAB
M  V30 COUNTS 44 47 0 0 0
M  V30 BEGIN ATOM
M  V30 1 F -6.205936 0.964142 5.071242 0
M  V30 2 C -4.997192 0.318067 4.938791 0
M  V30 3 F -5.172345 -1.055653 4.873058 0
M  V30 4 F -4.208785 0.585818 6.035101 0
M  V30 5 C -4.256203 0.743402 3.722245 0
M  V30 6 C -3.840524 -0.118011 2.729049 0
M  V30 7 C -3.155863 0.328655 1.620937 0
M  V30 8 C -2.853964 1.664247 1.455033 0
M  V30 9 C -2.136154 2.335096 0.365045 0
M  V30 10 N -0.727586 2.482579 0.547859 0
M  V30 11 C 0.208669 1.448535 0.706715 0
M  V30 12 C 1.566443 1.704927 0.885315 0
M  V30 13 C 2.524587 0.730318 1.044331 0
M  V30 14 C 2.133772 -0.608243 1.028873 0
M  V30 15 C 3.256992 -1.559387 1.213335 0
M  V30 16 C 3.883998 -1.889910 -0.101012 0
M  V30 17 C 5.097575 -1.338385 -0.520674 0
M  V30 18 N 5.436173 -1.788007 -1.724764 0
M  V30 19 C 4.475795 -2.637996 -2.137612 0
M  V30 20 N 4.276208 -3.385437 -3.249476 0
M  V30 21 C 3.204522 -4.175592 -3.422639 0
M  V30 22 C 2.248182 -4.234983 -2.415653 0
M  V30 23 Cl 0.869825 -5.266335 -2.666008 0
M  V30 24 C 2.408755 -3.489390 -1.261769 0
M  V30 25 C 3.528544 -2.698805 -1.144050 0
M  V30 26 C 0.792823 -0.850983 0.852222 0
M  V30 27 N -0.080492 0.157086 0.703955 0
M  V30 28 C -3.298268 2.496666 2.491423 0
M  V30 29 N -3.970824 2.070957 3.583423 0
M  V30 30 H -4.061975 -1.171016 2.829804 0
M  V30 31 H -2.816574 -0.306202 0.822341 0
M  V30 32 H -2.274387 1.778768 -0.608182 0
M  V30 33 H -2.625220 3.317530 0.181500 0
M  V30 34 H -0.342146 3.475753 0.566223 0
M  V30 35 H 1.892734 2.749998 0.900591 0
M  V30 36 H 3.560496 1.047156 1.176931 0
M  V30 37 H 2.880362 -2.552096 1.596695 0
M  V30 38 H 4.007856 -1.157391 1.899574 0
M  V30 39 H 5.689500 -0.635368 0.055942 0
M  V30 40 H 6.294311 -1.543037 -2.283351 0
M  V30 41 H 3.095758 -4.752226 -4.333894 0
M  V30 42 H 1.665787 -3.537634 -0.481458 0
M  V30 43 H 0.544674 -1.901025 0.849977 0
M  V30 44 H -3.122017 3.582592 2.480596 0
M  V30 END ATOM
M  V30 BEGIN BOND
M  V30 1 1 1 2
M  V30 2 1 2 3
M  V30 3 1 2 4
M  V30 4 1 2 5
M  V30 5 2 5 6
M  V30 6 1 6 7
M  V30 7 2 7 8
M  V30 8 1 8 9
M  V30 9 1 9 10
M  V30 10 1 10 11
M  V30 11 2 11 12
M  V30 12 1 12 13
M  V30 13 2 13 14
M  V30 14 1 14 15
M  V30 15 1 15 16
M  V30 16 2 16 17
M  V30 17 1 17 18
M  V30 18 1 18 19
M  V30 19 2 19 20
M  V30 20 1 20 21
M  V30 21 2 21 22
M  V30 22 1 22 23
M  V30 23 1 22 24
M  V30 24 2 24 25
M  V30 25 1 14 26
M  V30 26 2 26 27
M  V30 27 1 8 28
M  V30 28 2 28 29
M  V30 29 1 29 5
M  V30 30 1 27 11
M  V30 31 1 25 16
M  V30 32 1 25 19
M  V30 33 1 6 30
M  V30 34 1 7 31
M  V30 35 1 9 32
M  V30 36 1 9 33
M  V30 37 1 10 34
M  V30 38 1 12 35
M  V30 39 1 13 36
M  V30 40 1 15 37
M  V30 41 1 15 38
M  V30 42 1 17 39
M  V30 43 1 18 40
M  V30 44 1 21 41
M  V30 45 1 24 42
M  V30 46 1 26 43
M  V30 47 1 28 44
M  V30 END BOND
M  V30 END CTAB
M  END
>  <Dataset>  (750) 
OralDrugs

>  <Ligand_Instance>  (750) 
nan

>  <PDB_ID>  (750) 
nan

>  <Standardized_SMILES>  (750) 
FC(F)(F)c1ccc(CNc2ccc(Cc3c[nH]c4ncc(Cl)cc34)cn2)cn1

>  <Name>  (750) 
Pexidartinib

>  <Pocket>  (750) 
nan

>  <ATP_Site>  (750) 
nan

>  <Peripheral>  (750) 
nan

>  <Num_H_Atoms_ProtBoundConf>  (750) 
nan

>  <Num_Resolved_Atoms>  (750) 
nan

>  <Num_Not_Resolved_Atoms>  (750) 
nan

$$$$
CHEMBL918
     RDKit          3D

  0  0  0  0  0  0  0  0  0  0999 V3000
M  V30 BEGIN CTAB
M  V30 COUNTS 23 23 0 0 0
M  V30 BEGIN ATOM
M  V30 1 N 0.414249 -0.649029 4.865849 0
M  V30 2 C 0.992086 -1.303789 3.745064 0
M  V30 3 O 1.323469 -2.455713 3.381651 0
M  V30 4 N 1.297872 -0.390893 2.670758 0
M  V30 5 C 1.774301 -0.731533 1.364912 0
M  V30 6 O 1.984911 -1.968578 1.165788 0
M  V30 7 C 1.992505 0.332999 0.309546 0
M  V30 8 C 0.762659 0.344949 -0.526517 0
M  V30 9 C 0.364589 -0.432788 -1.586267 0
M  V30 10 C -0.862723 -0.225213 -2.177622 0
M  V30 11 C -1.768560 0.756786 -1.761653 0
M  V30 12 C -1.383171 1.555369 -0.687564 0
M  V30 13 C -0.158538 1.312244 -0.133848 0
M  V30 14 H 0.902507 0.053826 5.455791 0
M  V30 15 H -0.563479 -1.003763 4.946215 0
M  V30 16 H 1.151387 0.671856 2.766993 0
M  V30 17 H 2.920000 0.119750 -0.260867 0
M  V30 18 H 2.114247 1.295877 0.810297 0
M  V30 19 H 1.104828 -1.165010 -1.860535 0
M  V30 20 H -1.121824 -0.874578 -3.020685 0
M  V30 21 H -2.717481 0.906038 -2.230684 0
M  V30 22 H -2.051841 2.331145 -0.329073 0
M  V30 23 H 0.042654 1.996888 0.701564 0
M  V30 END ATOM
M  V30 BEGIN BOND
M  V30 1 1 1 2
M  V30 2 2 2 3
M  V30 3 1 2 4
M  V30 4 1 4 5
M  V30 5 2 5 6
M  V30 6 1 5 7
M  V30 7 1 7 8
M  V30 8 2 8 9
M  V30 9 1 9 10
M  V30 10 2 10 11
M  V30 11 1 11 12
M  V30 12 2 12 13
M  V30 13 1 13 8
M  V30 14 1 1 14
M  V30 15 1 1 15
M  V30 16 1 4 16
M  V30 17 1 7 17
M  V30 18 1 7 18
M  V30 19 1 9 19
M  V30 20 1 10 20
M  V30 21 1 11 21
M  V30 22 1 12 22
M  V30 23 1 13 23
M  V30 END BOND
M  V30 END CTAB
M  END
>  <Dataset>  (751) 
OralDrugs

>  <Ligand_Instance>  (751) 
nan

>  <PDB_ID>  (751) 
nan

>  <Standardized_SMILES>  (751) 
NC(=O)NC(=O)Cc1ccccc1

>  <Name>  (751) 
Phenacemide

>  <Pocket>  (751) 
nan

>  <ATP_Site>  (751) 
nan

>  <Peripheral>  (751) 
nan

>  <Num_H_Atoms_ProtBoundConf>  (751) 
nan

>  <Num_Resolved_Atoms>  (751) 
nan

>  <Num_Not_Resolved_Atoms>  (751) 
nan

$$$$
CHEMBL1242
     RDKit          3D

  0  0  0  0  0  0  0  0  0  0999 V3000
M  V30 BEGIN CTAB
M  V30 COUNTS 27 28 0 0 0
M  V30 BEGIN ATOM
M  V30 1 N 1.119703 -3.661000 5.080409 0
M  V30 2 C 0.959707 -2.857814 3.911539 0
M  V30 3 C 0.995376 -3.515591 2.697686 0
M  V30 4 C 0.838896 -2.719596 1.586258 0
M  V30 5 C 0.656901 -1.338515 1.696106 0
M  V30 6 N 0.515165 -0.701149 0.431685 0
M  V30 7 N -0.142521 0.332726 0.192061 0
M  V30 8 C -0.258340 0.937619 -1.087122 0
M  V30 9 C 0.363206 2.087794 -1.523660 0
M  V30 10 C 0.128206 2.530988 -2.816815 0
M  V30 11 C -0.719323 1.810740 -3.630015 0
M  V30 12 C -1.368164 0.641960 -3.227289 0
M  V30 13 C -1.114103 0.221450 -1.926618 0
M  V30 14 C 0.632202 -0.750443 2.945102 0
M  V30 15 N 0.441095 0.659036 2.934943 0
M  V30 16 N 0.785611 -1.527082 4.046156 0
M  V30 17 H 1.780399 -3.796161 5.886366 0
M  V30 18 H 0.388610 -4.394502 5.304561 0
M  V30 19 H 1.137272 -4.588258 2.624716 0
M  V30 20 H 0.869410 -3.257072 0.625312 0
M  V30 21 H 1.004493 2.565034 -0.795910 0
M  V30 22 H 0.621920 3.420343 -3.123244 0
M  V30 23 H -0.902174 2.158120 -4.640388 0
M  V30 24 H -2.011292 0.140507 -3.919257 0
M  V30 25 H -1.637388 -0.687864 -1.657099 0
M  V30 26 H -0.553277 0.944979 2.811626 0
M  V30 27 H 1.314070 1.199386 3.051128 0
M  V30 END ATOM
M  V30 BEGIN BOND
M  V30 1 1 1 2
M  V30 2 2 2 3
M  V30 3 1 3 4
M  V30 4 2 4 5
M  V30 5 1 5 6
M  V30 6 2 6 7
M  V30 7 1 7 8
M  V30 8 2 8 9
M  V30 9 1 9 10
M  V30 10 2 10 11
M  V30 11 1 11 12
M  V30 12 2 12 13
M  V30 13 1 5 14
M  V30 14 1 14 15
M  V30 15 2 14 16
M  V30 16 1 16 2
M  V30 17 1 13 8
M  V30 18 1 1 17
M  V30 19 1 1 18
M  V30 20 1 3 19
M  V30 21 1 4 20
M  V30 22 1 9 21
M  V30 23 1 10 22
M  V30 24 1 11 23
M  V30 25 1 12 24
M  V30 26 1 13 25
M  V30 27 1 15 26
M  V30 28 1 15 27
M  V30 END BOND
M  V30 END CTAB
M  END
>  <Dataset>  (752) 
OralDrugs

>  <Ligand_Instance>  (752) 
nan

>  <PDB_ID>  (752) 
nan

>  <Standardized_SMILES>  (752) 
Nc1ccc(/N=N/c2ccccc2)c(N)n1

>  <Name>  (752) 
Phenazopyridine

>  <Pocket>  (752) 
nan

>  <ATP_Site>  (752) 
nan

>  <Peripheral>  (752) 
nan

>  <Num_H_Atoms_ProtBoundConf>  (752) 
nan

>  <Num_Resolved_Atoms>  (752) 
nan

>  <Num_Not_Resolved_Atoms>  (752) 
nan

$$$$
CHEMBL1615439
     RDKit          3D

  0  0  0  0  0  0  0  0  0  0999 V3000
M  V30 BEGIN CTAB
M  V30 COUNTS 31 32 0 0 0
M  V30 BEGIN ATOM
M  V30 1 C -1.457828 -0.828636 2.696936 0
M  V30 2 C -0.619075 -0.465768 1.499054 0 CFG=1
M  V30 3 C 0.242136 -1.628751 1.109287 0 CFG=2
M  V30 4 C 1.574187 -1.107770 0.690302 0
M  V30 5 C 2.642979 -0.966561 1.586450 0
M  V30 6 C 3.880715 -0.491363 1.239119 0
M  V30 7 C 4.118763 -0.125174 -0.048963 0
M  V30 8 C 3.113612 -0.238575 -0.977931 0
M  V30 9 C 1.888196 -0.717864 -0.594813 0
M  V30 10 O -0.308545 -2.551537 0.282319 0
M  V30 11 C -1.308372 -2.180424 -0.558691 0
M  V30 12 C -2.232854 -1.103744 -0.032858 0
M  V30 13 N -1.362287 -0.025364 0.370397 0
M  V30 14 C -2.025417 1.230071 0.523202 0
M  V30 15 H -1.627088 -1.932779 2.760243 0
M  V30 16 H -0.952551 -0.565513 3.651670 0
M  V30 17 H -2.431638 -0.328308 2.709955 0
M  V30 18 H 0.037457 0.372135 1.807745 0
M  V30 19 H 0.461637 -2.171661 2.081930 0
M  V30 20 H 2.443859 -1.263343 2.621539 0
M  V30 21 H 4.622278 -0.424368 1.998606 0
M  V30 22 H 5.099192 0.246472 -0.302922 0
M  V30 23 H 3.339584 0.061043 -1.987309 0
M  V30 24 H 1.150081 -0.783961 -1.351751 0
M  V30 25 H -1.923634 -3.093251 -0.774466 0
M  V30 26 H -0.984998 -1.835052 -1.570865 0
M  V30 27 H -2.809296 -1.544321 0.796508 0
M  V30 28 H -2.916455 -0.819076 -0.851551 0
M  V30 29 H -3.039408 1.163163 0.936819 0
M  V30 30 H -1.354889 1.900676 1.098824 0
M  V30 31 H -2.105707 1.695291 -0.493319 0
M  V30 END ATOM
M  V30 BEGIN BOND
M  V30 1 1 1 2
M  V30 2 1 2 3
M  V30 3 1 3 4
M  V30 4 2 4 5
M  V30 5 1 5 6
M  V30 6 2 6 7
M  V30 7 1 7 8
M  V30 8 2 8 9
M  V30 9 1 3 10
M  V30 10 1 10 11
M  V30 11 1 11 12
M  V30 12 1 12 13
M  V30 13 1 13 14
M  V30 14 1 13 2
M  V30 15 1 9 4
M  V30 16 1 1 15
M  V30 17 1 1 16
M  V30 18 1 1 17
M  V30 19 1 2 18 CFG=1
M  V30 20 1 3 19 CFG=1
M  V30 21 1 5 20
M  V30 22 1 6 21
M  V30 23 1 7 22
M  V30 24 1 8 23
M  V30 25 1 9 24
M  V30 26 1 11 25
M  V30 27 1 11 26
M  V30 28 1 12 27
M  V30 29 1 12 28
M  V30 30 1 14 29
M  V30 31 1 14 30
M  V30 32 1 14 31
M  V30 END BOND
M  V30 END CTAB
M  END
>  <Dataset>  (753) 
OralDrugs

>  <Ligand_Instance>  (753) 
nan

>  <PDB_ID>  (753) 
nan

>  <Standardized_SMILES>  (753) 
C[C@H]1[C@H](c2ccccc2)OCCN1C

>  <Name>  (753) 
Phendimetrazine

>  <Pocket>  (753) 
nan

>  <ATP_Site>  (753) 
nan

>  <Peripheral>  (753) 
nan

>  <Num_H_Atoms_ProtBoundConf>  (753) 
nan

>  <Num_Resolved_Atoms>  (753) 
nan

>  <Num_Not_Resolved_Atoms>  (753) 
nan

$$$$
CHEMBL1089
     RDKit          3D

  0  0  0  0  0  0  0  0  0  0999 V3000
M  V30 BEGIN CTAB
M  V30 COUNTS 22 22 0 0 0
M  V30 BEGIN ATOM
M  V30 1 N 1.558424 3.200155 1.919911 0
M  V30 2 N 1.558979 1.855333 1.678360 0
M  V30 3 C 0.923155 1.020242 2.604547 0
M  V30 4 C 0.940652 -0.442478 2.313763 0
M  V30 5 C 0.302385 -0.823338 1.051465 0
M  V30 6 C 1.097120 -0.860349 -0.073536 0
M  V30 7 C 0.570560 -1.213179 -1.319305 0
M  V30 8 C -0.789912 -1.525679 -1.376717 0
M  V30 9 C -1.600555 -1.496141 -0.272532 0
M  V30 10 C -1.020147 -1.136840 0.944387 0
M  V30 11 H 1.333362 3.699417 1.038715 0
M  V30 12 H 0.878612 3.438125 2.672455 0
M  V30 13 H 1.651465 1.547182 0.708279 0
M  V30 14 H 1.434646 1.154065 3.593659 0
M  V30 15 H -0.143214 1.347681 2.725418 0
M  V30 16 H 1.994599 -0.783794 2.375992 0
M  V30 17 H 0.400973 -0.937074 3.170447 0
M  V30 18 H 2.151643 -0.639795 -0.143071 0
M  V30 19 H 1.145139 -1.260779 -2.242673 0
M  V30 20 H -1.216878 -1.803073 -2.340969 0
M  V30 21 H -2.654521 -1.742374 -0.338789 0
M  V30 22 H -1.629962 -1.104890 1.826452 0
M  V30 END ATOM
M  V30 BEGIN BOND
M  V30 1 1 1 2
M  V30 2 1 2 3
M  V30 3 1 3 4
M  V30 4 1 4 5
M  V30 5 2 5 6
M  V30 6 1 6 7
M  V30 7 2 7 8
M  V30 8 1 8 9
M  V30 9 2 9 10
M  V30 10 1 10 5
M  V30 11 1 1 11
M  V30 12 1 1 12
M  V30 13 1 2 13
M  V30 14 1 3 14
M  V30 15 1 3 15
M  V30 16 1 4 16
M  V30 17 1 4 17
M  V30 18 1 6 18
M  V30 19 1 7 19
M  V30 20 1 8 20
M  V30 21 1 9 21
M  V30 22 1 10 22
M  V30 END BOND
M  V30 END CTAB
M  END
>  <Dataset>  (754) 
OralDrugs

>  <Ligand_Instance>  (754) 
nan

>  <PDB_ID>  (754) 
nan

>  <Standardized_SMILES>  (754) 
NNCCc1ccccc1

>  <Name>  (754) 
Phenelzine

>  <Pocket>  (754) 
nan

>  <ATP_Site>  (754) 
nan

>  <Peripheral>  (754) 
nan

>  <Num_H_Atoms_ProtBoundConf>  (754) 
nan

>  <Num_Resolved_Atoms>  (754) 
nan

>  <Num_Not_Resolved_Atoms>  (754) 
nan

$$$$
CHEMBL711
     RDKit          3D

  0  0  0  0  0  0  0  0  0  0999 V3000
M  V30 BEGIN CTAB
M  V30 COUNTS 27 29 0 0 0
M  V30 BEGIN ATOM
M  V30 1 O 0.986157 -1.221314 3.346230 0
M  V30 2 C 1.146313 -0.909466 2.154690 0
M  V30 3 C 1.425032 -1.834258 1.062313 0
M  V30 4 C 1.404240 -3.220574 1.010977 0
M  V30 5 C 1.718316 -3.868498 -0.184001 0
M  V30 6 C 2.050803 -3.127272 -1.318784 0
M  V30 7 C 2.075417 -1.749891 -1.282089 0
M  V30 8 C 1.759857 -1.141622 -0.085360 0
M  V30 9 C 1.714692 0.284840 0.208164 0
M  V30 10 O 2.079604 1.299776 -0.440575 0
M  V30 11 C 1.097384 0.427466 1.561073 0
M  V30 12 C -0.320689 0.815854 1.354178 0
M  V30 13 C -0.859206 2.003812 1.861192 0
M  V30 14 C -2.187171 2.356036 1.660971 0
M  V30 15 C -2.988349 1.484323 0.929967 0
M  V30 16 C -2.487414 0.292971 0.409768 0
M  V30 17 C -1.147119 -0.040559 0.624209 0
M  V30 18 H 1.154565 -3.853166 1.856182 0
M  V30 19 H 1.729156 -4.956570 -0.322506 0
M  V30 20 H 2.295878 -3.644771 -2.252329 0
M  V30 21 H 2.334935 -1.153840 -2.166224 0
M  V30 22 H 1.607135 1.211986 2.155564 0
M  V30 23 H -0.211858 2.674194 2.432728 0
M  V30 24 H -2.573522 3.286793 2.068886 0
M  V30 25 H -4.015383 1.787727 0.792560 0
M  V30 26 H -3.135835 -0.359005 -0.151741 0
M  V30 27 H -0.807276 -0.989335 0.192189 0
M  V30 END ATOM
M  V30 BEGIN BOND
M  V30 1 2 1 2
M  V30 2 1 2 3
M  V30 3 2 3 4
M  V30 4 1 4 5
M  V30 5 2 5 6
M  V30 6 1 6 7
M  V30 7 2 7 8
M  V30 8 1 8 9
M  V30 9 2 9 10
M  V30 10 1 9 11
M  V30 11 1 11 12
M  V30 12 2 12 13
M  V30 13 1 13 14
M  V30 14 2 14 15
M  V30 15 1 15 16
M  V30 16 2 16 17
M  V30 17 1 11 2
M  V30 18 1 17 12
M  V30 19 1 8 3
M  V30 20 1 4 18
M  V30 21 1 5 19
M  V30 22 1 6 20
M  V30 23 1 7 21
M  V30 24 1 11 22
M  V30 25 1 13 23
M  V30 26 1 14 24
M  V30 27 1 15 25
M  V30 28 1 16 26
M  V30 29 1 17 27
M  V30 END BOND
M  V30 END CTAB
M  END
>  <Dataset>  (755) 
OralDrugs

>  <Ligand_Instance>  (755) 
nan

>  <PDB_ID>  (755) 
nan

>  <Standardized_SMILES>  (755) 
O=C1c2ccccc2C(=O)C1c1ccccc1

>  <Name>  (755) 
Phenindione

>  <Pocket>  (755) 
nan

>  <ATP_Site>  (755) 
nan

>  <Peripheral>  (755) 
nan

>  <Num_H_Atoms_ProtBoundConf>  (755) 
nan

>  <Num_Resolved_Atoms>  (755) 
nan

>  <Num_Not_Resolved_Atoms>  (755) 
nan

$$$$
CHEMBL1201208
     RDKit          3D

  0  0  0  0  0  0  0  0  0  0999 V3000
M  V30 BEGIN CTAB
M  V30 COUNTS 28 29 0 0 0
M  V30 BEGIN ATOM
M  V30 1 C 1.859833 -0.100282 3.287816 0
M  V30 2 C 1.241308 -0.929691 2.154447 0
M  V30 3 N -0.027636 -1.443838 2.573642 0
M  V30 4 C -1.145210 -0.680309 2.112914 0
M  V30 5 C -0.775697 0.762422 2.048377 0
M  V30 6 O 0.350171 1.062190 1.327925 0
M  V30 7 C 1.155329 0.012189 0.980547 0
M  V30 8 C 0.674097 -0.640957 -0.246128 0
M  V30 9 C 0.550512 -1.996254 -0.476122 0
M  V30 10 C 0.081834 -2.494744 -1.680552 0
M  V30 11 C -0.263399 -1.584463 -2.659185 0
M  V30 12 C -0.152147 -0.223212 -2.462242 0
M  V30 13 C 0.322486 0.272006 -1.241824 0
M  V30 14 H 1.381289 -0.395304 4.244188 0
M  V30 15 H 2.954020 -0.266524 3.361844 0
M  V30 16 H 1.718149 0.987161 3.128652 0
M  V30 17 H 1.943906 -1.778858 1.960066 0
M  V30 18 H -0.113540 -2.463834 2.532192 0
M  V30 19 H -1.961434 -0.753560 2.890233 0
M  V30 20 H -1.630480 -1.061160 1.190672 0
M  V30 21 H -1.605491 1.379991 1.595586 0
M  V30 22 H -0.724294 1.143257 3.109623 0
M  V30 23 H 2.183464 0.385662 0.787865 0
M  V30 24 H 0.840369 -2.638532 0.336788 0
M  V30 25 H 0.017292 -3.571854 -1.774198 0
M  V30 26 H -0.625404 -2.034704 -3.584753 0
M  V30 27 H -0.432678 0.447340 -3.252459 0
M  V30 28 H 0.388954 1.352875 -1.143305 0
M  V30 END ATOM
M  V30 BEGIN BOND
M  V30 1 1 1 2
M  V30 2 1 2 3
M  V30 3 1 3 4
M  V30 4 1 4 5
M  V30 5 1 5 6
M  V30 6 1 6 7
M  V30 7 1 7 8
M  V30 8 2 8 9
M  V30 9 1 9 10
M  V30 10 2 10 11
M  V30 11 1 11 12
M  V30 12 2 12 13
M  V30 13 1 7 2
M  V30 14 1 13 8
M  V30 15 1 1 14
M  V30 16 1 1 15
M  V30 17 1 1 16
M  V30 18 1 2 17
M  V30 19 1 3 18
M  V30 20 1 4 19
M  V30 21 1 4 20
M  V30 22 1 5 21
M  V30 23 1 5 22
M  V30 24 1 7 23
M  V30 25 1 9 24
M  V30 26 1 10 25
M  V30 27 1 11 26
M  V30 28 1 12 27
M  V30 29 1 13 28
M  V30 END BOND
M  V30 END CTAB
M  END
>  <Dataset>  (756) 
OralDrugs

>  <Ligand_Instance>  (756) 
nan

>  <PDB_ID>  (756) 
nan

>  <Standardized_SMILES>  (756) 
CC1NCCOC1c1ccccc1

>  <Name>  (756) 
Phenmetrazine

>  <Pocket>  (756) 
nan

>  <ATP_Site>  (756) 
nan

>  <Peripheral>  (756) 
nan

>  <Num_H_Atoms_ProtBoundConf>  (756) 
nan

>  <Num_Resolved_Atoms>  (756) 
nan

>  <Num_Not_Resolved_Atoms>  (756) 
nan

$$$$
CHEMBL753
     RDKit          3D

  0  0  0  0  0  0  0  0  0  0999 V3000
M  V30 BEGIN CTAB
M  V30 COUNTS 43 44 0 0 0
M  V30 BEGIN ATOM
M  V30 1 C -0.082686 -2.739939 1.982331 0
M  V30 2 C -1.175807 -1.827382 1.547399 0
M  V30 3 C -1.463138 -2.233576 0.080896 0
M  V30 4 O -0.494400 -1.954437 -0.795979 0
M  V30 5 C 0.248107 -1.038249 -1.365458 0
M  V30 6 C 1.068001 -1.756276 -2.247645 0
M  V30 7 C 2.017700 -1.124257 -3.055093 0
M  V30 8 C 2.150600 0.254262 -2.979725 0
M  V30 9 C 1.369189 0.965577 -2.135686 0
M  V30 10 C 0.456041 0.297551 -1.367638 0
M  V30 11 N -1.027550 -0.449785 1.641846 0
M  V30 12 C -2.239688 0.240241 1.166690 0
M  V30 13 C -2.204187 1.702825 1.367788 0
M  V30 14 Cl -3.704860 2.466313 0.702303 0
M  V30 15 C -0.383241 0.219508 2.675474 0
M  V30 16 C 1.032708 -0.130304 2.849191 0
M  V30 17 C 1.747385 -0.943117 3.699093 0
M  V30 18 C 3.107191 -1.138869 3.686641 0
M  V30 19 C 3.863937 -0.460435 2.730125 0
M  V30 20 C 3.216454 0.366392 1.851993 0
M  V30 21 C 1.865524 0.514396 1.920132 0
M  V30 22 H -0.343432 -3.757326 1.503422 0
M  V30 23 H -0.160482 -2.905394 3.056952 0
M  V30 24 H 0.898310 -2.525357 1.562048 0
M  V30 25 H -2.097165 -2.176310 2.134341 0
M  V30 26 H -2.496955 -1.886003 -0.179295 0
M  V30 27 H -1.591970 -3.372926 0.096463 0
M  V30 28 H 1.164534 -2.816872 -2.496584 0
M  V30 29 H 2.722129 -1.537370 -3.781555 0
M  V30 30 H 2.844393 0.856813 -3.547315 0
M  V30 31 H 1.394249 2.057178 -1.999989 0
M  V30 32 H -0.182416 0.816980 -0.684203 0
M  V30 33 H -2.281336 0.043788 0.075522 0
M  V30 34 H -3.156571 -0.171693 1.609406 0
M  V30 35 H -1.361429 2.213959 0.882224 0
M  V30 36 H -2.220472 2.015431 2.438916 0
M  V30 37 H -0.856611 0.049341 3.698592 0
M  V30 38 H -0.427783 1.343656 2.593208 0
M  V30 39 H 1.056058 -1.417379 4.413563 0
M  V30 40 H 3.421580 -1.825766 4.458885 0
M  V30 41 H 4.915275 -0.677330 2.799215 0
M  V30 42 H 3.867533 0.852551 1.146512 0
M  V30 43 H 1.500248 1.210206 1.153784 0
M  V30 END ATOM
M  V30 BEGIN BOND
M  V30 1 1 1 2
M  V30 2 1 2 3
M  V30 3 1 3 4
M  V30 4 1 4 5
M  V30 5 2 5 6
M  V30 6 1 6 7
M  V30 7 2 7 8
M  V30 8 1 8 9
M  V30 9 2 9 10
M  V30 10 1 2 11
M  V30 11 1 11 12
M  V30 12 1 12 13
M  V30 13 1 13 14
M  V30 14 1 11 15
M  V30 15 1 15 16
M  V30 16 2 16 17
M  V30 17 1 17 18
M  V30 18 2 18 19
M  V30 19 1 19 20
M  V30 20 2 20 21
M  V30 21 1 10 5
M  V30 22 1 21 16
M  V30 23 1 1 22
M  V30 24 1 1 23
M  V30 25 1 1 24
M  V30 26 1 2 25
M  V30 27 1 3 26
M  V30 28 1 3 27
M  V30 29 1 6 28
M  V30 30 1 7 29
M  V30 31 1 8 30
M  V30 32 1 9 31
M  V30 33 1 10 32
M  V30 34 1 12 33
M  V30 35 1 12 34
M  V30 36 1 13 35
M  V30 37 1 13 36
M  V30 38 1 15 37
M  V30 39 1 15 38
M  V30 40 1 17 39
M  V30 41 1 18 40
M  V30 42 1 19 41
M  V30 43 1 20 42
M  V30 44 1 21 43
M  V30 END BOND
M  V30 END CTAB
M  END
>  <Dataset>  (757) 
OralDrugs

>  <Ligand_Instance>  (757) 
nan

>  <PDB_ID>  (757) 
nan

>  <Standardized_SMILES>  (757) 
CC(COc1ccccc1)N(CCCl)Cc1ccccc1

>  <Name>  (757) 
Phenoxybenzamine

>  <Pocket>  (757) 
nan

>  <ATP_Site>  (757) 
nan

>  <Peripheral>  (757) 
nan

>  <Num_H_Atoms_ProtBoundConf>  (757) 
nan

>  <Num_Resolved_Atoms>  (757) 
nan

>  <Num_Not_Resolved_Atoms>  (757) 
nan

$$$$
CHEMBL1465
     RDKit          3D

  0  0  0  0  0  0  0  0  0  0999 V3000
M  V30 BEGIN CTAB
M  V30 COUNTS 37 39 0 0 0
M  V30 BEGIN ATOM
M  V30 1 C -1.415664 -3.921348 0.743452 0
M  V30 2 C -1.264320 -2.849524 -0.220995 0
M  V30 3 C -0.272045 -1.785863 -0.153731 0
M  V30 4 C 1.159755 -2.124843 -0.154928 0
M  V30 5 C 1.816597 -2.690638 0.920881 0
M  V30 6 C 3.153175 -3.029995 0.959700 0
M  V30 7 C 3.931212 -2.801459 -0.145352 0
M  V30 8 C 3.372870 -2.240221 -1.271954 0
M  V30 9 C 2.038828 -1.930701 -1.233906 0
M  V30 10 C -0.550353 -0.582029 0.662179 0
M  V30 11 C -0.106180 0.690304 0.252476 0
M  V30 12 O 0.609286 0.784110 -0.953529 0
M  V30 13 C -0.334654 1.845777 0.968489 0
M  V30 14 C 0.125471 3.064187 0.516321 0
M  V30 15 C -0.122880 4.206647 1.262919 0
M  V30 16 C -0.831004 4.082267 2.447572 0
M  V30 17 C -1.310972 2.881166 2.938707 0
M  V30 18 C -1.030690 1.787197 2.150626 0
M  V30 19 O -1.442423 0.602035 2.528667 0
M  V30 20 C -1.228632 -0.495697 1.854079 0
M  V30 21 O -1.682324 -1.561380 2.337586 0
M  V30 22 H -1.447478 -4.956836 0.266766 0
M  V30 23 H -0.773311 -4.016147 1.609040 0
M  V30 24 H -2.466096 -3.902092 1.177299 0
M  V30 25 H -2.258545 -2.324003 -0.387884 0
M  V30 26 H -1.154992 -3.356633 -1.238561 0
M  V30 27 H -0.388768 -1.327700 -1.210667 0
M  V30 28 H 1.295397 -2.902008 1.832793 0
M  V30 29 H 3.623779 -3.471996 1.826912 0
M  V30 30 H 4.972986 -3.039669 -0.184509 0
M  V30 31 H 3.939017 -2.039846 -2.166530 0
M  V30 32 H 1.604491 -1.482571 -2.143265 0
M  V30 33 H 0.031255 0.817395 -1.789728 0
M  V30 34 H 0.679318 3.136939 -0.417569 0
M  V30 35 H 0.225471 5.191439 0.938012 0
M  V30 36 H -1.040603 4.972716 3.057120 0
M  V30 37 H -1.859326 2.814598 3.864486 0
M  V30 END ATOM
M  V30 BEGIN BOND
M  V30 1 1 1 2
M  V30 2 1 2 3
M  V30 3 1 3 4
M  V30 4 2 4 5
M  V30 5 1 5 6
M  V30 6 2 6 7
M  V30 7 1 7 8
M  V30 8 2 8 9
M  V30 9 1 3 10
M  V30 10 2 10 11
M  V30 11 1 11 12
M  V30 12 1 11 13
M  V30 13 2 13 14
M  V30 14 1 14 15
M  V30 15 2 15 16
M  V30 16 1 16 17
M  V30 17 2 17 18
M  V30 18 1 18 19
M  V30 19 1 19 20
M  V30 20 2 20 21
M  V30 21 1 9 4
M  V30 22 1 20 10
M  V30 23 1 18 13
M  V30 24 1 1 22
M  V30 25 1 1 23
M  V30 26 1 1 24
M  V30 27 1 2 25
M  V30 28 1 2 26
M  V30 29 1 3 27
M  V30 30 1 5 28
M  V30 31 1 6 29
M  V30 32 1 7 30
M  V30 33 1 8 31
M  V30 34 1 9 32
M  V30 35 1 12 33
M  V30 36 1 14 34
M  V30 37 1 15 35
M  V30 38 1 16 36
M  V30 39 1 17 37
M  V30 END BOND
M  V30 END CTAB
M  END
>  <Dataset>  (758) 
OralDrugs

>  <Ligand_Instance>  (758) 
nan

>  <PDB_ID>  (758) 
nan

>  <Standardized_SMILES>  (758) 
CCC(c1ccccc1)c1c(O)c2ccccc2oc1=O

>  <Name>  (758) 
Phenprocoumon

>  <Pocket>  (758) 
nan

>  <ATP_Site>  (758) 
nan

>  <Peripheral>  (758) 
nan

>  <Num_H_Atoms_ProtBoundConf>  (758) 
nan

>  <Num_Resolved_Atoms>  (758) 
nan

>  <Num_Not_Resolved_Atoms>  (758) 
nan

$$$$
CHEMBL797
     RDKit          3D

  0  0  0  0  0  0  0  0  0  0999 V3000
M  V30 BEGIN CTAB
M  V30 COUNTS 25 26 0 0 0
M  V30 BEGIN ATOM
M  V30 1 C 0.865963 0.921654 4.142448 0
M  V30 2 N 0.843601 -0.111475 3.129051 0
M  V30 3 C 0.118263 -1.325681 3.207715 0
M  V30 4 O -0.342182 -1.904274 4.239299 0
M  V30 5 C -0.067842 -1.906807 1.850850 0
M  V30 6 C 0.979022 -1.188193 1.035570 0
M  V30 7 C 0.418699 -0.578515 -0.200173 0
M  V30 8 C -0.625863 0.324097 -0.187331 0
M  V30 9 C -1.102776 0.855849 -1.366142 0
M  V30 10 C -0.581197 0.529296 -2.601709 0
M  V30 11 C 0.479891 -0.384197 -2.648396 0
M  V30 12 C 0.941594 -0.904540 -1.452266 0
M  V30 13 C 1.517783 -0.124188 1.891558 0
M  V30 14 O 2.447665 0.635776 1.520105 0
M  V30 15 H 0.011691 0.755682 4.859983 0
M  V30 16 H 0.696991 1.925361 3.679588 0
M  V30 17 H 1.798478 0.890617 4.763459 0
M  V30 18 H 0.206109 -2.980091 1.921063 0
M  V30 19 H -1.095023 -1.772561 1.493427 0
M  V30 20 H 1.820358 -1.890918 0.784234 0
M  V30 21 H -1.065513 0.609287 0.755888 0
M  V30 22 H -1.933835 1.570849 -1.325057 0
M  V30 23 H -0.948555 0.941264 -3.532913 0
M  V30 24 H 0.931848 -0.680278 -3.589125 0
M  V30 25 H 1.770278 -1.612650 -1.541166 0
M  V30 END ATOM
M  V30 BEGIN BOND
M  V30 1 1 1 2
M  V30 2 1 2 3
M  V30 3 2 3 4
M  V30 4 1 3 5
M  V30 5 1 5 6
M  V30 6 1 6 7
M  V30 7 2 7 8
M  V30 8 1 8 9
M  V30 9 2 9 10
M  V30 10 1 10 11
M  V30 11 2 11 12
M  V30 12 1 6 13
M  V30 13 2 13 14
M  V30 14 1 13 2
M  V30 15 1 12 7
M  V30 16 1 1 15
M  V30 17 1 1 16
M  V30 18 1 1 17
M  V30 19 1 5 18
M  V30 20 1 5 19
M  V30 21 1 6 20
M  V30 22 1 8 21
M  V30 23 1 9 22
M  V30 24 1 10 23
M  V30 25 1 11 24
M  V30 26 1 12 25
M  V30 END BOND
M  V30 END CTAB
M  END
>  <Dataset>  (759) 
OralDrugs

>  <Ligand_Instance>  (759) 
nan

>  <PDB_ID>  (759) 
nan

>  <Standardized_SMILES>  (759) 
CN1C(=O)CC(c2ccccc2)C1=O

>  <Name>  (759) 
Phensuximide

>  <Pocket>  (759) 
nan

>  <ATP_Site>  (759) 
nan

>  <Peripheral>  (759) 
nan

>  <Num_H_Atoms_ProtBoundConf>  (759) 
nan

>  <Num_Resolved_Atoms>  (759) 
nan

>  <Num_Not_Resolved_Atoms>  (759) 
nan

$$$$
CHEMBL1574
     RDKit          3D

  0  0  0  0  0  0  0  0  0  0999 V3000
M  V30 BEGIN CTAB
M  V30 COUNTS 26 26 0 0 0
M  V30 BEGIN ATOM
M  V30 1 C 0.808030 1.038708 1.883102 0
M  V30 2 C -0.437183 0.184686 1.927068 0
M  V30 3 C -1.398089 0.786128 2.898951 0
M  V30 4 N -0.142718 -1.162239 2.370582 0
M  V30 5 C -1.012417 0.055272 0.534269 0
M  V30 6 C -0.003131 -0.580844 -0.352669 0
M  V30 7 C 0.965972 0.032022 -1.113125 0
M  V30 8 C 1.830491 -0.703356 -1.886795 0
M  V30 9 C 1.730759 -2.074382 -1.905748 0
M  V30 10 C 0.775058 -2.768976 -1.162524 0
M  V30 11 C -0.066103 -1.976940 -0.404063 0
M  V30 12 H 0.920084 1.505321 2.905145 0
M  V30 13 H 0.708806 1.899322 1.199386 0
M  V30 14 H 1.732659 0.463256 1.672635 0
M  V30 15 H -1.798175 1.752249 2.588176 0
M  V30 16 H -0.800892 0.973891 3.836929 0
M  V30 17 H -2.189110 0.055697 3.205451 0
M  V30 18 H 0.521156 -1.148690 3.181238 0
M  V30 19 H -1.070663 -1.554564 2.711991 0
M  V30 20 H -1.214426 1.072241 0.123270 0
M  V30 21 H -1.943284 -0.530119 0.537278 0
M  V30 22 H 0.979150 1.096112 -1.045145 0
M  V30 23 H 2.562559 -0.158965 -2.455189 0
M  V30 24 H 2.422968 -2.623261 -2.522239 0
M  V30 25 H 0.699986 -3.832630 -1.179160 0
M  V30 26 H -0.805528 -2.536868 0.169330 0
M  V30 END ATOM
M  V30 BEGIN BOND
M  V30 1 1 1 2
M  V30 2 1 2 3
M  V30 3 1 2 4
M  V30 4 1 2 5
M  V30 5 1 5 6
M  V30 6 2 6 7
M  V30 7 1 7 8
M  V30 8 2 8 9
M  V30 9 1 9 10
M  V30 10 2 10 11
M  V30 11 1 11 6
M  V30 12 1 1 12
M  V30 13 1 1 13
M  V30 14 1 1 14
M  V30 15 1 3 15
M  V30 16 1 3 16
M  V30 17 1 3 17
M  V30 18 1 4 18
M  V30 19 1 4 19
M  V30 20 1 5 20
M  V30 21 1 5 21
M  V30 22 1 7 22
M  V30 23 1 8 23
M  V30 24 1 9 24
M  V30 25 1 10 25
M  V30 26 1 11 26
M  V30 END BOND
M  V30 END CTAB
M  END
>  <Dataset>  (760) 
OralDrugs

>  <Ligand_Instance>  (760) 
nan

>  <PDB_ID>  (760) 
nan

>  <Standardized_SMILES>  (760) 
CC(C)(N)Cc1ccccc1

>  <Name>  (760) 
Phentermine

>  <Pocket>  (760) 
nan

>  <ATP_Site>  (760) 
nan

>  <Peripheral>  (760) 
nan

>  <Num_H_Atoms_ProtBoundConf>  (760) 
nan

>  <Num_Resolved_Atoms>  (760) 
nan

>  <Num_Not_Resolved_Atoms>  (760) 
nan

$$$$
CHEMBL1200868
     RDKit          3D

  0  0  0  0  0  0  0  0  0  0999 V3000
M  V30 BEGIN CTAB
M  V30 COUNTS 28 29 0 0 0
M  V30 BEGIN ATOM
M  V30 1 N 0.536451 -1.460273 6.146837 0
M  V30 2 C 0.481155 -1.293316 4.714465 0
M  V30 3 C 0.118466 -0.047596 4.242499 0
M  V30 4 C 0.078262 0.067754 2.851671 0
M  V30 5 C 0.387194 -1.013763 2.051073 0
M  V30 6 C 0.347763 -0.902452 0.597195 0
M  V30 7 O 0.636575 -1.912845 -0.093455 0
M  V30 8 O 0.020524 0.216754 -0.109499 0
M  V30 9 C -0.019939 0.333110 -1.474045 0
M  V30 10 C 1.106940 0.726915 -2.203257 0
M  V30 11 C 1.081800 0.848374 -3.575038 0
M  V30 12 C -0.065981 0.584461 -4.294424 0
M  V30 13 C -1.202666 0.192951 -3.619870 0
M  V30 14 C -1.150749 0.078401 -2.239316 0
M  V30 15 C 0.743040 -2.234737 2.587073 0
M  V30 16 O 1.061585 -3.349165 1.804047 0
M  V30 17 C 0.798875 -2.404473 3.956801 0
M  V30 18 H -0.153499 -2.105982 6.605597 0
M  V30 19 H 1.062212 -1.148095 7.005477 0
M  V30 20 H -0.109661 0.752660 4.930446 0
M  V30 21 H -0.199327 1.020165 2.429450 0
M  V30 22 H 2.000525 0.934312 -1.663721 0
M  V30 23 H 1.933384 1.149101 -4.159414 0
M  V30 24 H -0.136229 0.663107 -5.348652 0
M  V30 25 H -2.145434 -0.033035 -4.112604 0
M  V30 26 H -2.041077 -0.227212 -1.722017 0
M  V30 27 H 1.965122 -3.353670 1.352504 0
M  V30 28 H 1.070294 -3.334438 4.442788 0
M  V30 END ATOM
M  V30 BEGIN BOND
M  V30 1 1 1 2
M  V30 2 2 2 3
M  V30 3 1 3 4
M  V30 4 2 4 5
M  V30 5 1 5 6
M  V30 6 2 6 7
M  V30 7 1 6 8
M  V30 8 1 8 9
M  V30 9 2 9 10
M  V30 10 1 10 11
M  V30 11 2 11 12
M  V30 12 1 12 13
M  V30 13 2 13 14
M  V30 14 1 5 15
M  V30 15 1 15 16
M  V30 16 2 15 17
M  V30 17 1 17 2
M  V30 18 1 14 9
M  V30 19 1 1 18
M  V30 20 1 1 19
M  V30 21 1 3 20
M  V30 22 1 4 21
M  V30 23 1 10 22
M  V30 24 1 11 23
M  V30 25 1 12 24
M  V30 26 1 13 25
M  V30 27 1 14 26
M  V30 28 1 16 27
M  V30 29 1 17 28
M  V30 END BOND
M  V30 END CTAB
M  END
>  <Dataset>  (761) 
OralDrugs

>  <Ligand_Instance>  (761) 
nan

>  <PDB_ID>  (761) 
nan

>  <Standardized_SMILES>  (761) 
Nc1ccc(C(=O)Oc2ccccc2)c(O)c1

>  <Name>  (761) 
Phenyl Aminosalicylate

>  <Pocket>  (761) 
nan

>  <ATP_Site>  (761) 
nan

>  <Peripheral>  (761) 
nan

>  <Num_H_Atoms_ProtBoundConf>  (761) 
nan

>  <Num_Resolved_Atoms>  (761) 
nan

>  <Num_Not_Resolved_Atoms>  (761) 
nan

$$$$
CHEMBL1215
     RDKit          3D

  0  0  0  0  0  0  0  0  0  0999 V3000
M  V30 BEGIN CTAB
M  V30 COUNTS 25 25 0 0 0
M  V30 BEGIN ATOM
M  V30 1 C 2.576756 0.385496 2.245377 0
M  V30 2 N 2.638021 -1.013646 2.186581 0
M  V30 3 C 1.458485 -1.792480 2.215866 0
M  V30 4 C 0.544190 -1.743089 1.063179 0 CFG=2
M  V30 5 O 1.276495 -2.112685 -0.096473 0
M  V30 6 C -0.282103 -0.615341 0.783264 0
M  V30 7 C -0.655060 0.509565 1.466623 0
M  V30 8 C -1.472538 1.515407 1.035743 0
M  V30 9 C -1.990862 1.402641 -0.228035 0
M  V30 10 C -1.680221 0.310823 -0.999806 0
M  V30 11 O -2.244056 0.264698 -2.274715 0
M  V30 12 C -0.848803 -0.668758 -0.504300 0
M  V30 13 H 2.284002 0.869839 1.292678 0
M  V30 14 H 3.621366 0.792779 2.435055 0
M  V30 15 H 2.012452 0.730908 3.132323 0
M  V30 16 H 3.408499 -1.420696 1.611517 0
M  V30 17 H 0.959810 -1.698827 3.207361 0
M  V30 18 H 1.830307 -2.866846 2.252850 0
M  V30 19 H -0.178728 -2.639630 1.149767 0
M  V30 20 H 1.693846 -1.302360 -0.476499 0
M  V30 21 H -0.253032 0.567458 2.453571 0
M  V30 22 H -1.677385 2.355025 1.708309 0
M  V30 23 H -2.643298 2.201530 -0.577246 0
M  V30 24 H -1.601865 0.037732 -3.029484 0
M  V30 25 H -0.690830 -1.474179 -1.223542 0
M  V30 END ATOM
M  V30 BEGIN BOND
M  V30 1 1 1 2
M  V30 2 1 2 3
M  V30 3 1 3 4
M  V30 4 1 4 5
M  V30 5 1 4 6
M  V30 6 2 6 7
M  V30 7 1 7 8
M  V30 8 2 8 9
M  V30 9 1 9 10
M  V30 10 1 10 11
M  V30 11 2 10 12
M  V30 12 1 12 6
M  V30 13 1 1 13
M  V30 14 1 1 14
M  V30 15 1 1 15
M  V30 16 1 2 16
M  V30 17 1 3 17
M  V30 18 1 3 18
M  V30 19 1 4 19 CFG=1
M  V30 20 1 5 20
M  V30 21 1 7 21
M  V30 22 1 8 22
M  V30 23 1 9 23
M  V30 24 1 11 24
M  V30 25 1 12 25
M  V30 END BOND
M  V30 END CTAB
M  END
>  <Dataset>  (762) 
OralDrugs

>  <Ligand_Instance>  (762) 
nan

>  <PDB_ID>  (762) 
nan

>  <Standardized_SMILES>  (762) 
CNC[C@H](O)c1cccc(O)c1

>  <Name>  (762) 
Phenylephrine

>  <Pocket>  (762) 
nan

>  <ATP_Site>  (762) 
nan

>  <Peripheral>  (762) 
nan

>  <Num_H_Atoms_ProtBoundConf>  (762) 
nan

>  <Num_Resolved_Atoms>  (762) 
nan

>  <Num_Not_Resolved_Atoms>  (762) 
nan

$$$$
CHEMBL16
     RDKit          3D

  0  0  0  0  0  0  0  0  0  0999 V3000
M  V30 BEGIN CTAB
M  V30 COUNTS 31 33 0 0 0
M  V30 BEGIN ATOM
M  V30 1 O -2.347810 -4.070075 0.952335 0
M  V30 2 C -1.265895 -3.419591 0.924188 0
M  V30 3 N 0.073061 -3.733247 1.344161 0
M  V30 4 C 0.920112 -2.611477 1.072790 0
M  V30 5 O 2.136007 -2.894916 1.239052 0
M  V30 6 C 0.060139 -1.462426 0.676689 0
M  V30 7 C 0.565384 -0.806452 -0.539857 0
M  V30 8 C -0.292290 0.189220 -0.964160 0
M  V30 9 C -0.022834 0.953882 -2.103163 0
M  V30 10 C 1.152048 0.660142 -2.785312 0
M  V30 11 C 2.046079 -0.339461 -2.388357 0
M  V30 12 C 1.709457 -1.048053 -1.256916 0
M  V30 13 C -0.061466 -0.515638 1.816385 0
M  V30 14 C 1.110336 0.047550 2.236906 0
M  V30 15 C 1.049271 0.943715 3.302425 0
M  V30 16 C -0.168212 1.233166 3.893115 0
M  V30 17 C -1.331391 0.640222 3.435894 0
M  V30 18 C -1.274928 -0.234555 2.396548 0
M  V30 19 N -1.210666 -2.100154 0.399792 0
M  V30 20 H 0.170954 -4.701825 1.759235 0
M  V30 21 H -1.232019 0.493342 -0.500456 0
M  V30 22 H -0.657966 1.743353 -2.478628 0
M  V30 23 H 1.387786 1.237278 -3.672505 0
M  V30 24 H 2.947931 -0.561234 -2.917147 0
M  V30 25 H 2.316385 -1.850628 -0.841904 0
M  V30 26 H 2.050250 -0.166940 1.791802 0
M  V30 27 H 1.945774 1.418529 3.675801 0
M  V30 28 H -0.236277 1.924475 4.719678 0
M  V30 29 H -2.306498 0.854638 3.888004 0
M  V30 30 H -2.110527 -0.745541 1.968702 0
M  V30 31 H -1.967558 -1.601612 -0.129633 0
M  V30 END ATOM
M  V30 BEGIN BOND
M  V30 1 2 1 2
M  V30 2 1 2 3
M  V30 3 1 3 4
M  V30 4 2 4 5
M  V30 5 1 4 6
M  V30 6 1 6 7
M  V30 7 2 7 8
M  V30 8 1 8 9
M  V30 9 2 9 10
M  V30 10 1 10 11
M  V30 11 2 11 12
M  V30 12 1 6 13
M  V30 13 2 13 14
M  V30 14 1 14 15
M  V30 15 2 15 16
M  V30 16 1 16 17
M  V30 17 2 17 18
M  V30 18 1 6 19
M  V30 19 1 19 2
M  V30 20 1 12 7
M  V30 21 1 18 13
M  V30 22 1 3 20
M  V30 23 1 8 21
M  V30 24 1 9 22
M  V30 25 1 10 23
M  V30 26 1 11 24
M  V30 27 1 12 25
M  V30 28 1 14 26
M  V30 29 1 15 27
M  V30 30 1 16 28
M  V30 31 1 17 29
M  V30 32 1 18 30
M  V30 33 1 19 31
M  V30 END BOND
M  V30 END CTAB
M  END
>  <Dataset>  (763) 
OralDrugs

>  <Ligand_Instance>  (763) 
nan

>  <PDB_ID>  (763) 
nan

>  <Standardized_SMILES>  (763) 
O=C1NC(=O)C(c2ccccc2)(c2ccccc2)N1

>  <Name>  (763) 
Phenytoin

>  <Pocket>  (763) 
nan

>  <ATP_Site>  (763) 
nan

>  <Peripheral>  (763) 
nan

>  <Num_H_Atoms_ProtBoundConf>  (763) 
nan

>  <Num_Resolved_Atoms>  (763) 
nan

>  <Num_Not_Resolved_Atoms>  (763) 
nan

$$$$
CHEMBL1611
     RDKit          3D

  0  0  0  0  0  0  0  0  0  0999 V3000
M  V30 BEGIN CTAB
M  V30 COUNTS 31 33 0 0 0
M  V30 BEGIN ATOM
M  V30 1 O -1.859378 -0.482448 2.840455 0
M  V30 2 C -1.004621 0.166835 2.215153 0
M  V30 3 N -0.981135 1.604920 2.226385 0
M  V30 4 C 0.202268 2.015817 1.879788 0
M  V30 5 O 0.583358 3.361550 1.783752 0
M  V30 6 N 1.031366 0.880299 1.619017 0
M  V30 7 C 0.133341 -0.231015 1.357344 0
M  V30 8 C -0.254549 -0.116853 -0.061735 0
M  V30 9 C 0.610427 -0.206672 -1.130774 0
M  V30 10 C 0.180993 -0.089048 -2.450903 0
M  V30 11 C -1.168628 0.127777 -2.726832 0
M  V30 12 C -2.080124 0.225449 -1.679434 0
M  V30 13 C -1.577943 0.098415 -0.402019 0
M  V30 14 C 0.706281 -1.539969 1.655976 0
M  V30 15 C 2.003160 -1.705269 2.083401 0
M  V30 16 C 2.456945 -2.981158 2.338797 0
M  V30 17 C 1.667224 -4.112287 2.185402 0
M  V30 18 C 0.360817 -3.889530 1.750049 0
M  V30 19 C -0.138592 -2.625730 1.481233 0
M  V30 20 H -0.111980 4.101167 1.605438 0
M  V30 21 H 2.070247 0.993853 1.649118 0
M  V30 22 H 1.670494 -0.377238 -0.910106 0
M  V30 23 H 0.888026 -0.164318 -3.274963 0
M  V30 24 H -1.539427 0.224230 -3.738340 0
M  V30 25 H -3.136391 0.393201 -1.845857 0
M  V30 26 H -2.299244 0.176366 0.409166 0
M  V30 27 H 2.662750 -0.873344 2.221334 0
M  V30 28 H 3.485047 -3.082404 2.674743 0
M  V30 29 H 2.062605 -5.090282 2.396739 0
M  V30 30 H -0.290645 -4.757570 1.618090 0
M  V30 31 H -1.178055 -2.569055 1.145046 0
M  V30 END ATOM
M  V30 BEGIN BOND
M  V30 1 2 1 2
M  V30 2 1 2 3
M  V30 3 2 3 4
M  V30 4 1 4 5
M  V30 5 1 4 6
M  V30 6 1 6 7
M  V30 7 1 7 8
M  V30 8 2 8 9
M  V30 9 1 9 10
M  V30 10 2 10 11
M  V30 11 1 11 12
M  V30 12 2 12 13
M  V30 13 1 7 14
M  V30 14 2 14 15
M  V30 15 1 15 16
M  V30 16 2 16 17
M  V30 17 1 17 18
M  V30 18 2 18 19
M  V30 19 1 7 2
M  V30 20 1 13 8
M  V30 21 1 19 14
M  V30 22 1 5 20
M  V30 23 1 6 21
M  V30 24 1 9 22
M  V30 25 1 10 23
M  V30 26 1 11 24
M  V30 27 1 12 25
M  V30 28 1 13 26
M  V30 29 1 15 27
M  V30 30 1 16 28
M  V30 31 1 17 29
M  V30 32 1 18 30
M  V30 33 1 19 31
M  V30 END BOND
M  V30 END CTAB
M  END
>  <Dataset>  (764) 
OralDrugs

>  <Ligand_Instance>  (764) 
nan

>  <PDB_ID>  (764) 
nan

>  <Standardized_SMILES>  (764) 
O=C1N=C(O)NC1(c1ccccc1)c1ccccc1

>  <Name>  (764) 
Phenytoin Sodium

>  <Pocket>  (764) 
nan

>  <ATP_Site>  (764) 
nan

>  <Peripheral>  (764) 
nan

>  <Num_H_Atoms_ProtBoundConf>  (764) 
nan

>  <Num_Resolved_Atoms>  (764) 
nan

>  <Num_Not_Resolved_Atoms>  (764) 
nan

$$$$
CHEMBL1550
     RDKit          3D

  0  0  0  0  0  0  0  0  0  0999 V3000
M  V30 BEGIN CTAB
M  V30 COUNTS 79 80 0 0 0
M  V30 BEGIN ATOM
M  V30 1 C -0.920745 -1.961563 0.262881 0
M  V30 2 C -0.004915 -3.073792 0.624388 0
M  V30 3 C -0.041461 -3.501157 1.865356 0
M  V30 4 C -0.776198 -3.175918 3.083488 0
M  V30 5 C -1.758112 -2.105922 2.977377 0
M  V30 6 C -1.767409 -0.964399 3.686645 0
M  V30 7 C -0.576304 -0.966852 4.628748 0
M  V30 8 C -2.581505 0.252378 3.808766 0
M  V30 9 C -3.756328 0.428758 2.940907 0
M  V30 10 C -3.454401 0.536186 1.469297 0
M  V30 11 C -2.543183 1.718331 1.181014 0 CFG=2
M  V30 12 C -3.277790 2.968828 1.660132 0
M  V30 13 C -2.298654 1.760716 -0.302119 0
M  V30 14 C -1.402553 2.916385 -0.693586 0
M  V30 15 C -0.054569 2.878015 -0.066178 0
M  V30 16 C 0.789783 1.696049 -0.389739 0 CFG=2
M  V30 17 C 2.105616 1.882874 0.379987 0
M  V30 18 C 1.142460 1.630714 -1.874584 0
M  V30 19 C 1.988113 0.393949 -2.052592 0
M  V30 20 C 2.486249 0.126322 -3.409596 0
M  V30 21 C 1.564418 -0.062887 -4.531311 0
M  V30 22 C 0.576025 -1.181302 -4.443148 0
M  V30 23 C 0.888953 1.209435 -4.984950 0
M  V30 24 C 0.899620 -4.613605 2.142003 0
M  V30 25 O 1.057149 -5.199454 3.251647 0
M  V30 26 C 1.795015 -5.192889 1.130830 0
M  V30 27 C 2.679433 -6.226277 1.359802 0
M  V30 28 C 3.486812 -6.711517 0.349420 0
M  V30 29 C 3.437658 -6.180757 -0.923178 0
M  V30 30 C 2.566782 -5.141454 -1.206439 0
M  V30 31 C 1.789950 -4.703302 -0.157785 0
M  V30 32 C 0.860277 -3.611204 -0.412816 0
M  V30 33 O 0.797132 -3.116624 -1.553128 0
M  V30 34 H -0.851668 -1.121254 0.968507 0
M  V30 35 H -1.938070 -2.334907 0.061861 0
M  V30 36 H -0.602088 -1.503828 -0.719480 0
M  V30 37 H -0.020441 -3.004257 3.886722 0
M  V30 38 H -1.294242 -4.121719 3.429249 0
M  V30 39 H -2.612785 -2.116376 2.321939 0
M  V30 40 H -0.464183 0.016988 5.122851 0
M  V30 41 H -0.624879 -1.775065 5.364802 0
M  V30 42 H 0.318883 -1.024315 3.941700 0
M  V30 43 H -2.957249 0.277200 4.885900 0
M  V30 44 H -1.875929 1.124107 3.786077 0
M  V30 45 H -4.538279 -0.352219 3.065112 0
M  V30 46 H -4.306825 1.385598 3.190015 0
M  V30 47 H -4.452484 0.851225 1.006149 0
M  V30 48 H -3.200709 -0.373425 0.949091 0
M  V30 49 H -1.585384 1.692170 1.693511 0
M  V30 50 H -2.828096 3.898598 1.277082 0
M  V30 51 H -3.142920 3.023079 2.772411 0
M  V30 52 H -4.340386 2.857369 1.416569 0
M  V30 53 H -3.248682 1.878529 -0.823546 0
M  V30 54 H -1.805668 0.831090 -0.583520 0
M  V30 55 H -1.278856 2.815921 -1.803853 0
M  V30 56 H -1.852765 3.894297 -0.514484 0
M  V30 57 H 0.482492 3.799141 -0.398230 0
M  V30 58 H -0.111872 2.949591 1.040935 0
M  V30 59 H 0.329402 0.772647 -0.012964 0
M  V30 60 H 1.950134 2.509286 1.281205 0
M  V30 61 H 2.861772 2.382837 -0.265254 0
M  V30 62 H 2.513001 0.908560 0.716299 0
M  V30 63 H 0.219619 1.620054 -2.490157 0
M  V30 64 H 1.726772 2.520100 -2.132255 0
M  V30 65 H 1.551597 -0.486383 -1.531588 0
M  V30 66 H 2.908071 0.611354 -1.425379 0
M  V30 67 H 3.165695 0.993348 -3.675380 0
M  V30 68 H 3.226045 -0.725973 -3.325277 0
M  V30 69 H 2.223940 -0.341020 -5.423769 0
M  V30 70 H 0.191630 -1.400579 -5.484349 0
M  V30 71 H -0.327753 -0.817793 -3.912212 0
M  V30 72 H 0.978072 -2.125385 -4.095770 0
M  V30 73 H 1.001525 1.393046 -6.089669 0
M  V30 74 H -0.203651 1.225206 -4.791431 0
M  V30 75 H 1.414828 2.063695 -4.498298 0
M  V30 76 H 2.718029 -6.643677 2.356330 0
M  V30 77 H 4.182429 -7.522007 0.531468 0
M  V30 78 H 4.041733 -6.509334 -1.772700 0
M  V30 79 H 2.483332 -4.679863 -2.193959 0
M  V30 END ATOM
M  V30 BEGIN BOND
M  V30 1 1 1 2
M  V30 2 2 2 3
M  V30 3 1 3 4
M  V30 4 1 4 5
M  V30 5 2 5 6
M  V30 6 1 6 7
M  V30 7 1 6 8
M  V30 8 1 8 9
M  V30 9 1 9 10
M  V30 10 1 10 11
M  V30 11 1 11 12
M  V30 12 1 11 13
M  V30 13 1 13 14
M  V30 14 1 14 15
M  V30 15 1 15 16
M  V30 16 1 16 17
M  V30 17 1 16 18
M  V30 18 1 18 19
M  V30 19 1 19 20
M  V30 20 1 20 21
M  V30 21 1 21 22
M  V30 22 1 21 23
M  V30 23 1 3 24
M  V30 24 2 24 25
M  V30 25 1 24 26
M  V30 26 2 26 27
M  V30 27 1 27 28
M  V30 28 2 28 29
M  V30 29 1 29 30
M  V30 30 2 30 31
M  V30 31 1 31 32
M  V30 32 2 32 33
M  V30 33 1 32 2
M  V30 34 1 31 26
M  V30 35 1 1 34
M  V30 36 1 1 35
M  V30 37 1 1 36
M  V30 38 1 4 37
M  V30 39 1 4 38
M  V30 40 1 5 39
M  V30 41 1 7 40
M  V30 42 1 7 41
M  V30 43 1 7 42
M  V30 44 1 8 43
M  V30 45 1 8 44
M  V30 46 1 9 45
M  V30 47 1 9 46
M  V30 48 1 10 47
M  V30 49 1 10 48
M  V30 50 1 11 49 CFG=1
M  V30 51 1 12 50
M  V30 52 1 12 51
M  V30 53 1 12 52
M  V30 54 1 13 53
M  V30 55 1 13 54
M  V30 56 1 14 55
M  V30 57 1 14 56
M  V30 58 1 15 57
M  V30 59 1 15 58
M  V30 60 1 16 59 CFG=1
M  V30 61 1 17 60
M  V30 62 1 17 61
M  V30 63 1 17 62
M  V30 64 1 18 63
M  V30 65 1 18 64
M  V30 66 1 19 65
M  V30 67 1 19 66
M  V30 68 1 20 67
M  V30 69 1 20 68
M  V30 70 1 21 69
M  V30 71 1 22 70
M  V30 72 1 22 71
M  V30 73 1 22 72
M  V30 74 1 23 73
M  V30 75 1 23 74
M  V30 76 1 23 75
M  V30 77 1 27 76
M  V30 78 1 28 77
M  V30 79 1 29 78
M  V30 80 1 30 79
M  V30 END BOND
M  V30 END CTAB
M  END
>  <Dataset>  (765) 
OralDrugs

>  <Ligand_Instance>  (765) 
nan

>  <PDB_ID>  (765) 
nan

>  <Standardized_SMILES>  (765) 
CC1=C(C/C=C(\C)CCC[C@H](C)CCC[C@H](C)CCCC(C)C)C(=O)c2ccccc2C1=O

>  <Name>  (765) 
Phytonadione

>  <Pocket>  (765) 
nan

>  <ATP_Site>  (765) 
nan

>  <Peripheral>  (765) 
nan

>  <Num_H_Atoms_ProtBoundConf>  (765) 
nan

>  <Num_Resolved_Atoms>  (765) 
nan

>  <Num_Not_Resolved_Atoms>  (765) 
nan

$$$$
CHEMBL3545123
     RDKit          3D

  0  0  0  0  0  0  0  0  0  0999 V3000
M  V30 BEGIN CTAB
M  V30 COUNTS 145 154 0 0 0
M  V30 BEGIN ATOM
M  V30 1 C 8.290746 3.242842 2.238515 0
M  V30 2 O 7.389747 2.446898 1.469971 0
M  V30 3 C 7.100444 2.758171 0.145725 0
M  V30 4 O 7.608629 3.741837 -0.443302 0
M  V30 5 N 6.184066 1.868778 -0.474240 0
M  V30 6 C 5.702279 1.955510 -1.842799 0 CFG=2
M  V30 7 C 4.245973 2.248343 -1.883190 0
M  V30 8 O 3.678630 2.420729 -3.002925 0
M  V30 9 N 3.303875 2.380227 -0.828925 0
M  V30 10 C 1.961333 2.703426 -1.255442 0
M  V30 11 C 1.233620 3.190499 -0.046712 0
M  V30 12 C 2.287517 3.262071 1.035716 0
M  V30 13 C 3.356025 2.258397 0.604259 0 CFG=1
M  V30 14 C 2.964990 0.882716 1.059563 0
M  V30 15 N 1.858212 0.230993 0.628764 0
M  V30 16 C 1.795634 -0.970100 1.227565 0
M  V30 17 C 0.854498 -1.969485 1.117763 0
M  V30 18 C 0.909731 -3.168559 1.818348 0
M  V30 19 C 0.002750 -4.319111 1.808548 0 CFG=1
M  V30 20 C -0.658751 -4.745528 3.027596 0
M  V30 21 C -1.958385 -4.061921 3.102557 0
M  V30 22 C -1.882663 -3.091209 1.892194 0 CFG=2
M  V30 23 C -3.198334 -2.566131 1.782113 0
M  V30 24 C -3.480039 -1.382517 2.448109 0
M  V30 25 C -4.729287 -0.806085 2.393890 0
M  V30 26 N -5.182906 0.326094 2.962932 0
M  V30 27 C -6.496784 0.491552 2.620278 0
M  V30 28 C -7.156260 1.695265 3.163047 0 CFG=2
M  V30 29 C -8.449519 1.904599 2.400165 0
M  V30 30 C -8.670297 3.388933 2.640023 0
M  V30 31 C -7.251874 3.923584 2.457688 0
M  V30 32 N -6.412836 2.897745 3.039514 0
M  V30 33 C -5.073358 3.124508 3.404865 0
M  V30 34 O -4.109569 2.518048 3.904100 0
M  V30 35 C -4.212613 4.323417 3.315221 0 CFG=1
M  V30 36 N -2.877656 3.959235 3.813185 0
M  V30 37 C -2.166713 4.479371 4.937583 0
M  V30 38 O -2.733045 5.375201 5.612956 0
M  V30 39 O -0.907647 3.871000 5.095372 0
M  V30 40 C -0.048302 4.239777 6.149888 0
M  V30 41 C -4.005860 4.762407 1.886832 0 CFG=1
M  V30 42 C -2.988755 5.891100 1.802742 0
M  V30 43 O -3.448006 3.703507 1.172860 0
M  V30 44 C -4.219263 3.376374 0.069450 0
M  V30 45 N -6.803973 -0.562872 1.841344 0
M  V30 46 C -5.746264 -1.378692 1.679859 0
M  V30 47 C -5.540614 -2.553669 0.994084 0
M  V30 48 C -4.255867 -3.106292 1.075048 0
M  V30 49 F -4.033457 -4.257333 0.406945 0
M  V30 50 N -1.174106 -3.860717 1.015305 0
M  V30 51 C -1.259805 -4.269199 -0.360792 0
M  V30 52 C -0.980632 -5.617047 -0.651514 0
M  V30 53 C -0.995710 -6.119780 -1.933219 0
M  V30 54 F -0.698402 -7.419196 -2.038030 0
M  V30 55 C -1.290490 -5.314735 -3.006267 0
M  V30 56 N -1.351976 -5.806086 -4.330572 0
M  V30 57 C -1.251739 -7.174721 -4.780747 0
M  V30 58 C 0.185556 -7.413360 -5.173792 0
M  V30 59 C 0.608523 -6.386656 -6.175131 0
M  V30 60 C 1.817869 -5.667332 -5.750321 0
M  V30 61 C 1.907708 -4.609697 -4.867407 0
M  V30 62 C 3.038914 -3.955182 -4.469592 0
M  V30 63 C 4.244427 -4.375221 -4.991376 0
M  V30 64 F 5.424010 -3.814262 -4.678314 0
M  V30 65 C 4.291600 -5.425266 -5.887413 0
M  V30 66 C 3.092836 -6.020659 -6.226287 0
M  V30 67 C -0.529747 -5.595165 -6.665084 0
M  V30 68 C -1.469509 -5.094138 -5.589619 0
M  V30 69 C -1.568347 -3.993251 -2.746487 0
M  V30 70 F -1.888412 -3.049722 -3.631792 0
M  V30 71 C -1.552270 -3.488374 -1.455901 0
M  V30 72 C 2.014902 -3.266452 2.645612 0
M  V30 73 F 2.252034 -4.356044 3.406774 0
M  V30 74 C 2.994348 -2.272896 2.784763 0
M  V30 75 C 2.882453 -1.104539 2.063766 0
M  V30 76 N 3.560218 0.044428 1.925854 0
M  V30 77 C 6.016972 0.673420 -2.597793 0 CFG=1
M  V30 78 C 5.428534 -0.528662 -1.923347 0
M  V30 79 O 5.559481 0.734165 -3.904734 0
M  V30 80 C 6.555841 0.653478 -4.857450 0
M  V30 81 H 9.184516 3.391007 1.613451 0
M  V30 82 H 8.515806 2.677496 3.152638 0
M  V30 83 H 7.818209 4.217560 2.482545 0
M  V30 84 H 5.730674 1.032522 -0.045221 0
M  V30 85 H 6.206436 2.787945 -2.364368 0
M  V30 86 H 1.451032 1.839770 -1.750724 0
M  V30 87 H 1.934172 3.538401 -1.998817 0
M  V30 88 H 0.412323 2.474597 0.197690 0
M  V30 89 H 0.728113 4.180191 -0.201156 0
M  V30 90 H 1.878440 3.051442 2.022444 0
M  V30 91 H 2.689499 4.295716 1.034620 0
M  V30 92 H 4.303166 2.600349 1.049644 0
M  V30 93 H 0.006418 -1.855803 0.428428 0
M  V30 94 H 0.512696 -5.176563 1.332637 0
M  V30 95 H -0.901342 -5.852217 2.903439 0
M  V30 96 H -0.060329 -4.741231 3.958760 0
M  V30 97 H -2.843181 -4.711759 2.949793 0
M  V30 98 H -2.136420 -3.478393 4.028787 0
M  V30 99 H -1.189858 -2.295862 2.312672 0
M  V30 100 H -2.704565 -0.883405 3.033410 0
M  V30 101 H -7.492374 1.530643 4.230403 0
M  V30 102 H -8.338458 1.670880 1.329220 0
M  V30 103 H -9.243990 1.285297 2.816083 0
M  V30 104 H -9.339756 3.741451 1.852373 0
M  V30 105 H -9.053476 3.506010 3.655179 0
M  V30 106 H -7.212478 4.892187 2.996681 0
M  V30 107 H -7.102124 4.066108 1.372267 0
M  V30 108 H -4.594481 5.149184 3.958767 0
M  V30 109 H -2.491916 3.204750 3.170868 0
M  V30 110 H -0.604644 4.931438 6.849603 0
M  V30 111 H 0.843351 4.823260 5.807072 0
M  V30 112 H 0.356945 3.365481 6.712781 0
M  V30 113 H -4.956217 5.132779 1.456963 0
M  V30 114 H -2.972929 6.522455 2.708867 0
M  V30 115 H -3.282307 6.526689 0.942949 0
M  V30 116 H -1.962768 5.523358 1.590275 0
M  V30 117 H -5.238990 3.064405 0.321608 0
M  V30 118 H -3.744270 2.499135 -0.426749 0
M  V30 119 H -4.247896 4.189176 -0.686364 0
M  V30 120 H -7.766535 -0.630713 1.467747 0
M  V30 121 H -6.369067 -2.969313 0.448688 0
M  V30 122 H -0.746990 -6.269727 0.190902 0
M  V30 123 H -1.469537 -7.935346 -3.998977 0
M  V30 124 H -1.948175 -7.418109 -5.632640 0
M  V30 125 H 0.808323 -7.267350 -4.251781 0
M  V30 126 H 0.356975 -8.466212 -5.482969 0
M  V30 127 H 0.960141 -7.015015 -7.072251 0
M  V30 128 H 0.990258 -4.248602 -4.434663 0
M  V30 129 H 3.013507 -3.139979 -3.776508 0
M  V30 130 H 5.221818 -5.770221 -6.306356 0
M  V30 131 H 3.160098 -6.855166 -6.938666 0
M  V30 132 H -1.112821 -6.224424 -7.415361 0
M  V30 133 H -0.234991 -4.706816 -7.280865 0
M  V30 134 H -1.141180 -4.052017 -5.402417 0
M  V30 135 H -2.532149 -5.114642 -5.954255 0
M  V30 136 H -1.762568 -2.463187 -1.177990 0
M  V30 137 H 3.839330 -2.354906 3.424794 0
M  V30 138 H 4.450920 0.272579 2.427489 0
M  V30 139 H 7.114766 0.564079 -2.628107 0
M  V30 140 H 4.589602 -0.211395 -1.271296 0
M  V30 141 H 5.134649 -1.301369 -2.662628 0
M  V30 142 H 6.181054 -0.972034 -1.219743 0
M  V30 143 H 6.100456 0.708512 -5.871043 0
M  V30 144 H 7.240282 1.528829 -4.806269 0
M  V30 145 H 7.124080 -0.286684 -4.719610 0
M  V30 END ATOM
M  V30 BEGIN BOND
M  V30 1 1 1 2
M  V30 2 1 2 3
M  V30 3 2 3 4
M  V30 4 1 3 5
M  V30 5 1 5 6
M  V30 6 1 6 7
M  V30 7 2 7 8
M  V30 8 1 7 9
M  V30 9 1 9 10
M  V30 10 1 10 11
M  V30 11 1 11 12
M  V30 12 1 12 13
M  V30 13 1 13 14
M  V30 14 2 14 15
M  V30 15 1 15 16
M  V30 16 2 16 17
M  V30 17 1 17 18
M  V30 18 1 18 19
M  V30 19 1 19 20
M  V30 20 1 20 21
M  V30 21 1 21 22
M  V30 22 1 22 23
M  V30 23 2 23 24
M  V30 24 1 24 25
M  V30 25 1 25 26
M  V30 26 2 26 27
M  V30 27 1 27 28
M  V30 28 1 28 29
M  V30 29 1 29 30
M  V30 30 1 30 31
M  V30 31 1 31 32
M  V30 32 1 32 33
M  V30 33 2 33 34
M  V30 34 1 33 35
M  V30 35 1 35 36
M  V30 36 1 36 37
M  V30 37 2 37 38
M  V30 38 1 37 39
M  V30 39 1 39 40
M  V30 40 1 35 41
M  V30 41 1 41 42
M  V30 42 1 41 43
M  V30 43 1 43 44
M  V30 44 1 27 45
M  V30 45 1 45 46
M  V30 46 1 46 47
M  V30 47 2 47 48
M  V30 48 1 48 49
M  V30 49 1 22 50
M  V30 50 1 50 51
M  V30 51 2 51 52
M  V30 52 1 52 53
M  V30 53 1 53 54
M  V30 54 2 53 55
M  V30 55 1 55 56
M  V30 56 1 56 57
M  V30 57 1 57 58
M  V30 58 1 58 59
M  V30 59 1 59 60
M  V30 60 2 60 61
M  V30 61 1 61 62
M  V30 62 2 62 63
M  V30 63 1 63 64
M  V30 64 1 63 65
M  V30 65 2 65 66
M  V30 66 1 59 67
M  V30 67 1 67 68
M  V30 68 1 55 69
M  V30 69 1 69 70
M  V30 70 2 69 71
M  V30 71 2 18 72
M  V30 72 1 72 73
M  V30 73 1 72 74
M  V30 74 2 74 75
M  V30 75 1 75 76
M  V30 76 1 6 77
M  V30 77 1 77 78
M  V30 78 1 77 79
M  V30 79 1 79 80
M  V30 80 1 13 9
M  V30 81 1 76 14
M  V30 82 1 75 16
M  V30 83 1 50 19
M  V30 84 1 71 51
M  V30 85 1 48 23
M  V30 86 1 68 56
M  V30 87 2 46 25
M  V30 88 1 66 60
M  V30 89 1 32 28
M  V30 90 1 1 81
M  V30 91 1 1 82
M  V30 92 1 1 83
M  V30 93 1 5 84
M  V30 94 1 6 85 CFG=3
M  V30 95 1 10 86
M  V30 96 1 10 87
M  V30 97 1 11 88
M  V30 98 1 11 89
M  V30 99 1 12 90
M  V30 100 1 12 91
M  V30 101 1 13 92 CFG=1
M  V30 102 1 17 93
M  V30 103 1 19 94 CFG=3
M  V30 104 1 20 95
M  V30 105 1 20 96
M  V30 106 1 21 97
M  V30 107 1 21 98
M  V30 108 1 22 99 CFG=1
M  V30 109 1 24 100
M  V30 110 1 28 101 CFG=1
M  V30 111 1 29 102
M  V30 112 1 29 103
M  V30 113 1 30 104
M  V30 114 1 30 105
M  V30 115 1 31 106
M  V30 116 1 31 107
M  V30 117 1 35 108 CFG=1
M  V30 118 1 36 109
M  V30 119 1 40 110
M  V30 120 1 40 111
M  V30 121 1 40 112
M  V30 122 1 41 113 CFG=3
M  V30 123 1 42 114
M  V30 124 1 42 115
M  V30 125 1 42 116
M  V30 126 1 44 117
M  V30 127 1 44 118
M  V30 128 1 44 119
M  V30 129 1 45 120
M  V30 130 1 47 121
M  V30 131 1 52 122
M  V30 132 1 57 123
M  V30 133 1 57 124
M  V30 134 1 58 125
M  V30 135 1 58 126
M  V30 136 1 59 127
M  V30 137 1 61 128
M  V30 138 1 62 129
M  V30 139 1 65 130
M  V30 140 1 66 131
M  V30 141 1 67 132
M  V30 142 1 67 133
M  V30 143 1 68 134
M  V30 144 1 68 135
M  V30 145 1 71 136
M  V30 146 1 74 137
M  V30 147 1 76 138
M  V30 148 1 77 139 CFG=3
M  V30 149 1 78 140
M  V30 150 1 78 141
M  V30 151 1 78 142
M  V30 152 1 80 143
M  V30 153 1 80 144
M  V30 154 1 80 145
M  V30 END BOND
M  V30 END CTAB
M  END
>  <Dataset>  (766) 
OralDrugs

>  <Ligand_Instance>  (766) 
nan

>  <PDB_ID>  (766) 
nan

>  <Standardized_SMILES>  (766) 
COC(=O)N[C@H](C(=O)N1CCC[C@H]1c1nc2cc([C@H]3CC[C@H](c4cc5nc([C@@H]6CCCN6C(=O)[C@@H](NC(=O)OC)[C@@H](C)OC)[nH]c5cc4F)N3c3cc(F)c(N4CCC(c5ccc(F)cc5)CC4)c(F)c3)c(F)cc2[nH]1)[C@@H](C)OC

>  <Name>  (766) 
Pibrentasvir

>  <Pocket>  (766) 
nan

>  <ATP_Site>  (766) 
nan

>  <Peripheral>  (766) 
nan

>  <Num_H_Atoms_ProtBoundConf>  (766) 
nan

>  <Num_Resolved_Atoms>  (766) 
nan

>  <Num_Not_Resolved_Atoms>  (766) 
nan

$$$$
CHEMBL550
     RDKit          3D

  0  0  0  0  0  0  0  0  0  0999 V3000
M  V30 BEGIN CTAB
M  V30 COUNTS 31 32 0 0 0
M  V30 BEGIN ATOM
M  V30 1 C -1.707906 -1.336883 2.525136 0
M  V30 2 C -0.580387 -2.309273 2.598712 0
M  V30 3 C 0.547971 -2.051995 1.748201 0 CFG=2
M  V30 4 C 1.278891 -0.782332 1.909213 0
M  V30 5 O 1.409762 0.325541 2.534748 0
M  V30 6 O 2.300292 -0.796451 0.923871 0
M  V30 7 C 2.139462 -1.997649 0.153749 0
M  V30 8 C 0.587872 -2.251109 0.296596 0 CFG=2
M  V30 9 C -0.110629 -1.395684 -0.670314 0
M  V30 10 C 0.242699 0.024254 -0.763827 0
M  V30 11 C 1.321504 0.387108 -1.608517 0
M  V30 12 N 1.578484 1.728039 -1.600968 0
M  V30 13 C 0.663873 2.267098 -0.745659 0
M  V30 14 N -0.068912 1.235209 -0.304164 0
M  V30 15 C -1.168192 1.446047 0.586681 0
M  V30 16 H -1.429424 -0.312282 2.820032 0
M  V30 17 H -2.515180 -1.606514 3.279511 0
M  V30 18 H -2.175977 -1.403928 1.533043 0
M  V30 19 H -0.947690 -3.375213 2.596936 0
M  V30 20 H -0.216886 -2.222092 3.684756 0
M  V30 21 H 1.387337 -2.820368 2.152400 0
M  V30 22 H 2.433664 -1.809867 -0.848731 0
M  V30 23 H 2.693489 -2.784170 0.694542 0
M  V30 24 H 0.489865 -3.323814 0.053333 0
M  V30 25 H -1.238120 -1.505993 -0.620596 0
M  V30 26 H 0.075053 -1.836697 -1.710335 0
M  V30 27 H 2.045762 -0.068574 -2.305106 0
M  V30 28 H 0.553787 3.302678 -0.480820 0
M  V30 29 H -0.806633 1.610890 1.616474 0
M  V30 30 H -1.953243 0.700797 0.533251 0
M  V30 31 H -1.675950 2.438916 0.333314 0
M  V30 END ATOM
M  V30 BEGIN BOND
M  V30 1 1 1 2
M  V30 2 1 2 3
M  V30 3 1 3 4
M  V30 4 2 4 5
M  V30 5 1 4 6
M  V30 6 1 6 7
M  V30 7 1 7 8
M  V30 8 1 8 9
M  V30 9 1 9 10
M  V30 10 2 10 11
M  V30 11 1 11 12
M  V30 12 2 12 13
M  V30 13 1 13 14
M  V30 14 1 14 15
M  V30 15 1 8 3
M  V30 16 1 14 10
M  V30 17 1 1 16
M  V30 18 1 1 17
M  V30 19 1 1 18
M  V30 20 1 2 19
M  V30 21 1 2 20
M  V30 22 1 3 21 CFG=1
M  V30 23 1 7 22
M  V30 24 1 7 23
M  V30 25 1 8 24 CFG=1
M  V30 26 1 9 25
M  V30 27 1 9 26
M  V30 28 1 11 27
M  V30 29 1 13 28
M  V30 30 1 15 29
M  V30 31 1 15 30
M  V30 32 1 15 31
M  V30 END BOND
M  V30 END CTAB
M  END
>  <Dataset>  (767) 
OralDrugs

>  <Ligand_Instance>  (767) 
nan

>  <PDB_ID>  (767) 
nan

>  <Standardized_SMILES>  (767) 
CC[C@@H]1C(=O)OC[C@@H]1Cc1cncn1C

>  <Name>  (767) 
Pilocarpine

>  <Pocket>  (767) 
nan

>  <ATP_Site>  (767) 
nan

>  <Peripheral>  (767) 
nan

>  <Num_H_Atoms_ProtBoundConf>  (767) 
nan

>  <Num_Resolved_Atoms>  (767) 
nan

>  <Num_Not_Resolved_Atoms>  (767) 
nan

$$$$
CHEMBL2111101
     RDKit          3D

  0  0  0  0  0  0  0  0  0  0999 V3000
M  V30 BEGIN CTAB
M  V30 COUNTS 65 67 0 0 0
M  V30 BEGIN ATOM
M  V30 1 C 2.734183 0.759459 5.773011 0
M  V30 2 C 4.081065 0.532496 5.119700 0
M  V30 3 C 5.142456 0.270007 6.198334 0
M  V30 4 C 4.556359 1.705125 4.343057 0
M  V30 5 O 3.778658 2.144996 3.298193 0
M  V30 6 C 3.375930 1.536931 2.149102 0
M  V30 7 C 3.571196 0.300277 1.576461 0
M  V30 8 C 3.004691 -0.019060 0.361645 0
M  V30 9 C 2.214760 0.886516 -0.338764 0
M  V30 10 C 1.744729 0.268640 -1.610624 0
M  V30 11 N 0.532310 -0.463456 -1.344927 0
M  V30 12 C -0.766554 0.036688 -1.168194 0
M  V30 13 O -0.728340 1.308854 -1.288142 0
M  V30 14 N -1.994577 -0.649549 -0.897418 0
M  V30 15 C -3.084468 0.271494 -0.835233 0
M  V30 16 C -3.823027 0.532370 -2.068428 0
M  V30 17 C -4.986793 -0.170138 -2.408238 0
M  V30 18 C -5.739166 0.012261 -3.543721 0
M  V30 19 C -5.350994 0.963754 -4.460397 0
M  V30 20 F -6.074718 1.161540 -5.584033 0
M  V30 21 C -4.214229 1.696742 -4.195200 0
M  V30 22 C -3.509228 1.460116 -3.037109 0
M  V30 23 C -1.990093 -2.054628 -0.692930 0
M  V30 24 C -2.760894 -2.886234 -1.678985 0
M  V30 25 C -2.583810 -4.360370 -1.414251 0
M  V30 26 N -1.891406 -4.608945 -0.195907 0
M  V30 27 C -0.485745 -4.804618 -0.285867 0
M  V30 28 C -2.365242 -3.892855 0.943383 0
M  V30 29 C -2.419075 -2.396132 0.723892 0
M  V30 30 C 2.001058 2.127581 0.203241 0
M  V30 31 C 2.578319 2.445586 1.436639 0
M  V30 32 H 1.914589 0.519459 5.048970 0
M  V30 33 H 2.656254 -0.005994 6.579445 0
M  V30 34 H 2.623659 1.792186 6.124848 0
M  V30 35 H 4.028186 -0.382380 4.540703 0
M  V30 36 H 4.751661 -0.553509 6.835454 0
M  V30 37 H 5.334923 1.166457 6.793304 0
M  V30 38 H 6.020511 -0.132858 5.652877 0
M  V30 39 H 5.585090 1.470452 3.987900 0
M  V30 40 H 4.655481 2.564572 5.069358 0
M  V30 41 H 4.198101 -0.318593 2.195281 0
M  V30 42 H 3.285457 -1.049114 0.091171 0
M  V30 43 H 2.506980 -0.324251 -2.110716 0
M  V30 44 H 1.464501 1.111792 -2.294571 0
M  V30 45 H 0.672094 -1.480473 -1.283545 0
M  V30 46 H -3.868502 -0.092596 -0.088391 0
M  V30 47 H -2.778511 1.247274 -0.399693 0
M  V30 48 H -5.390018 -0.934706 -1.754714 0
M  V30 49 H -6.629652 -0.553803 -3.764445 0
M  V30 50 H -3.932560 2.435244 -4.930596 0
M  V30 51 H -2.659892 2.086873 -2.940260 0
M  V30 52 H -0.933812 -2.431051 -0.769172 0
M  V30 53 H -2.435827 -2.677619 -2.723078 0
M  V30 54 H -3.829108 -2.677269 -1.636050 0
M  V30 55 H -2.020850 -4.816133 -2.249747 0
M  V30 56 H -3.589877 -4.848122 -1.319624 0
M  V30 57 H 0.039740 -4.213265 0.492575 0
M  V30 58 H -0.085631 -4.650832 -1.305362 0
M  V30 59 H -0.256130 -5.871975 -0.014386 0
M  V30 60 H -3.387274 -4.236907 1.190596 0
M  V30 61 H -1.754445 -4.145782 1.855001 0
M  V30 62 H -3.412047 -2.009450 0.941352 0
M  V30 63 H -1.680646 -1.941918 1.421166 0
M  V30 64 H 1.390269 2.753314 -0.406074 0
M  V30 65 H 2.288866 3.477726 1.696924 0
M  V30 END ATOM
M  V30 BEGIN BOND
M  V30 1 1 1 2
M  V30 2 1 2 3
M  V30 3 1 2 4
M  V30 4 1 4 5
M  V30 5 1 5 6
M  V30 6 2 6 7
M  V30 7 1 7 8
M  V30 8 2 8 9
M  V30 9 1 9 10
M  V30 10 1 10 11
M  V30 11 1 11 12
M  V30 12 2 12 13
M  V30 13 1 12 14
M  V30 14 1 14 15
M  V30 15 1 15 16
M  V30 16 2 16 17
M  V30 17 1 17 18
M  V30 18 2 18 19
M  V30 19 1 19 20
M  V30 20 1 19 21
M  V30 21 2 21 22
M  V30 22 1 14 23
M  V30 23 1 23 24
M  V30 24 1 24 25
M  V30 25 1 25 26
M  V30 26 1 26 27
M  V30 27 1 26 28
M  V30 28 1 28 29
M  V30 29 1 9 30
M  V30 30 2 30 31
M  V30 31 1 31 6
M  V30 32 1 22 16
M  V30 33 1 29 23
M  V30 34 1 1 32
M  V30 35 1 1 33
M  V30 36 1 1 34
M  V30 37 1 2 35
M  V30 38 1 3 36
M  V30 39 1 3 37
M  V30 40 1 3 38
M  V30 41 1 4 39
M  V30 42 1 4 40
M  V30 43 1 7 41
M  V30 44 1 8 42
M  V30 45 1 10 43
M  V30 46 1 10 44
M  V30 47 1 11 45
M  V30 48 1 15 46
M  V30 49 1 15 47
M  V30 50 1 17 48
M  V30 51 1 18 49
M  V30 52 1 21 50
M  V30 53 1 22 51
M  V30 54 1 23 52
M  V30 55 1 24 53
M  V30 56 1 24 54
M  V30 57 1 25 55
M  V30 58 1 25 56
M  V30 59 1 27 57
M  V30 60 1 27 58
M  V30 61 1 27 59
M  V30 62 1 28 60
M  V30 63 1 28 61
M  V30 64 1 29 62
M  V30 65 1 29 63
M  V30 66 1 30 64
M  V30 67 1 31 65
M  V30 END BOND
M  V30 END CTAB
M  END
>  <Dataset>  (768) 
OralDrugs

>  <Ligand_Instance>  (768) 
nan

>  <PDB_ID>  (768) 
nan

>  <Standardized_SMILES>  (768) 
CC(C)COc1ccc(CNC(=O)N(Cc2ccc(F)cc2)C2CCN(C)CC2)cc1

>  <Name>  (768) 
Pimavanserin

>  <Pocket>  (768) 
nan

>  <ATP_Site>  (768) 
nan

>  <Peripheral>  (768) 
nan

>  <Num_H_Atoms_ProtBoundConf>  (768) 
nan

>  <Num_Resolved_Atoms>  (768) 
nan

>  <Num_Not_Resolved_Atoms>  (768) 
nan

$$$$
CHEMBL1423
     RDKit          3D

  0  0  0  0  0  0  0  0  0  0999 V3000
M  V30 BEGIN CTAB
M  V30 COUNTS 63 67 0 0 0
M  V30 BEGIN ATOM
M  V30 1 O 1.519068 -0.487136 -0.682040 0
M  V30 2 C 2.383966 -0.020275 0.072487 0
M  V30 3 N 3.407887 -0.706231 0.588436 0
M  V30 4 C 4.084762 0.164558 1.332572 0
M  V30 5 C 5.238774 -0.096665 2.069273 0
M  V30 6 C 5.802780 0.927700 2.779555 0
M  V30 7 C 5.200113 2.176079 2.732901 0
M  V30 8 C 4.069102 2.395977 1.999864 0
M  V30 9 C 3.467276 1.384487 1.266844 0
M  V30 10 N 2.381368 1.251432 0.457834 0
M  V30 11 C 1.529319 2.391725 0.202435 0
M  V30 12 C 0.931729 2.864464 1.480140 0
M  V30 13 C -0.520389 2.572014 1.660421 0
M  V30 14 N -0.965738 1.412840 0.911603 0
M  V30 15 C -2.315041 1.094416 1.276438 0
M  V30 16 C -2.917497 -0.100353 0.639236 0
M  V30 17 C -2.142632 -1.368130 0.970622 0
M  V30 18 C -2.768255 -2.580523 0.337092 0
M  V30 19 C -2.777192 -2.425199 -1.130767 0
M  V30 20 C -3.937635 -2.798357 -1.820141 0
M  V30 21 C -4.003015 -2.684278 -3.185977 0
M  V30 22 C -2.952848 -2.206563 -3.936827 0
M  V30 23 F -2.995550 -2.085303 -5.291205 0
M  V30 24 C -1.798740 -1.833083 -3.275144 0
M  V30 25 C -1.755444 -1.955863 -1.907932 0
M  V30 26 C -2.042259 -3.783911 0.805660 0
M  V30 27 C -2.802190 -4.920500 0.948146 0
M  V30 28 C -2.345051 -6.168664 1.372242 0
M  V30 29 C -0.984408 -6.247864 1.674857 0
M  V30 30 F -0.429105 -7.408654 2.096492 0
M  V30 31 C -0.202061 -5.119275 1.539038 0
M  V30 32 C -0.707969 -3.894077 1.110987 0
M  V30 33 C -0.765144 1.583823 -0.501332 0
M  V30 34 C 0.531818 2.217058 -0.877524 0
M  V30 35 H 3.615814 -1.725517 0.425254 0
M  V30 36 H 5.695740 -1.078096 2.093831 0
M  V30 37 H 6.705500 0.713518 3.353136 0
M  V30 38 H 5.692625 2.938306 3.312862 0
M  V30 39 H 3.611135 3.375778 1.972743 0
M  V30 40 H 2.239050 3.206785 -0.138175 0
M  V30 41 H 1.456993 2.405475 2.368057 0
M  V30 42 H 1.077857 3.965431 1.644720 0
M  V30 43 H -0.764768 2.427205 2.711856 0
M  V30 44 H -1.099545 3.437180 1.266417 0
M  V30 45 H -2.396825 0.958751 2.380948 0
M  V30 46 H -2.916597 2.007930 1.073553 0
M  V30 47 H -3.130540 0.000551 -0.434645 0
M  V30 48 H -3.911243 -0.273178 1.105996 0
M  V30 49 H -1.093585 -1.306491 0.626280 0
M  V30 50 H -2.151928 -1.476684 2.062643 0
M  V30 51 H -3.828287 -2.607018 0.716806 0
M  V30 52 H -4.820454 -3.188511 -1.297641 0
M  V30 53 H -4.895388 -2.967922 -3.746885 0
M  V30 54 H -0.962995 -1.456050 -3.841032 0
M  V30 55 H -0.864449 -1.675553 -1.365126 0
M  V30 56 H -3.869386 -4.926043 0.728623 0
M  V30 57 H -2.986845 -7.026868 1.465639 0
M  V30 58 H 0.873573 -5.119233 1.761394 0
M  V30 59 H -0.107838 -3.020513 1.003825 0
M  V30 60 H -1.594803 2.281341 -0.824535 0
M  V30 61 H -0.918133 0.688691 -1.093648 0
M  V30 62 H 0.310188 3.255378 -1.263888 0
M  V30 63 H 0.959870 1.707121 -1.765001 0
M  V30 END ATOM
M  V30 BEGIN BOND
M  V30 1 2 1 2
M  V30 2 1 2 3
M  V30 3 1 3 4
M  V30 4 2 4 5
M  V30 5 1 5 6
M  V30 6 2 6 7
M  V30 7 1 7 8
M  V30 8 2 8 9
M  V30 9 1 9 10
M  V30 10 1 10 11
M  V30 11 1 11 12
M  V30 12 1 12 13
M  V30 13 1 13 14
M  V30 14 1 14 15
M  V30 15 1 15 16
M  V30 16 1 16 17
M  V30 17 1 17 18
M  V30 18 1 18 19
M  V30 19 2 19 20
M  V30 20 1 20 21
M  V30 21 2 21 22
M  V30 22 1 22 23
M  V30 23 1 22 24
M  V30 24 2 24 25
M  V30 25 1 18 26
M  V30 26 2 26 27
M  V30 27 1 27 28
M  V30 28 2 28 29
M  V30 29 1 29 30
M  V30 30 1 29 31
M  V30 31 2 31 32
M  V30 32 1 14 33
M  V30 33 1 33 34
M  V30 34 1 10 2
M  V30 35 1 34 11
M  V30 36 1 9 4
M  V30 37 1 25 19
M  V30 38 1 32 26
M  V30 39 1 3 35
M  V30 40 1 5 36
M  V30 41 1 6 37
M  V30 42 1 7 38
M  V30 43 1 8 39
M  V30 44 1 11 40
M  V30 45 1 12 41
M  V30 46 1 12 42
M  V30 47 1 13 43
M  V30 48 1 13 44
M  V30 49 1 15 45
M  V30 50 1 15 46
M  V30 51 1 16 47
M  V30 52 1 16 48
M  V30 53 1 17 49
M  V30 54 1 17 50
M  V30 55 1 18 51
M  V30 56 1 20 52
M  V30 57 1 21 53
M  V30 58 1 24 54
M  V30 59 1 25 55
M  V30 60 1 27 56
M  V30 61 1 28 57
M  V30 62 1 31 58
M  V30 63 1 32 59
M  V30 64 1 33 60
M  V30 65 1 33 61
M  V30 66 1 34 62
M  V30 67 1 34 63
M  V30 END BOND
M  V30 END CTAB
M  END
>  <Dataset>  (769) 
OralDrugs

>  <Ligand_Instance>  (769) 
nan

>  <PDB_ID>  (769) 
nan

>  <Standardized_SMILES>  (769) 
O=c1[nH]c2ccccc2n1C1CCN(CCCC(c2ccc(F)cc2)c2ccc(F)cc2)CC1

>  <Name>  (769) 
Pimozide

>  <Pocket>  (769) 
nan

>  <ATP_Site>  (769) 
nan

>  <Peripheral>  (769) 
nan

>  <Num_H_Atoms_ProtBoundConf>  (769) 
nan

>  <Num_Resolved_Atoms>  (769) 
nan

>  <Num_Not_Resolved_Atoms>  (769) 
nan

$$$$
CHEMBL1200338
     RDKit          3D

  0  0  0  0  0  0  0  0  0  0999 V3000
M  V30 BEGIN CTAB
M  V30 COUNTS 37 37 0 0 0
M  V30 BEGIN ATOM
M  V30 1 C -1.204248 -2.068988 0.714517 0
M  V30 2 C -0.600561 -1.356544 1.872315 0
M  V30 3 N 0.369809 -0.337282 1.527351 0
M  V30 4 C 1.485823 -0.670205 0.723240 0
M  V30 5 N 1.981742 -1.814244 0.719472 0
M  V30 6 C 1.496730 -2.859293 1.492548 0
M  V30 7 N 1.100612 -3.761881 2.147918 0
M  V30 8 N 2.099257 0.289932 -0.119229 0
M  V30 9 C 2.717463 0.045701 -1.362965 0
M  V30 10 C 2.785976 -1.146023 -2.022029 0
M  V30 11 C 3.399625 -1.365335 -3.236875 0
M  V30 12 N 3.989899 -0.334698 -3.848975 0
M  V30 13 C 3.964504 0.870583 -3.262588 0
M  V30 14 C 3.350221 1.064621 -2.057786 0
M  V30 15 C -1.791710 -0.445171 2.345410 0
M  V30 16 C -2.973036 -1.299871 2.730890 0
M  V30 17 C -1.351148 0.362068 3.548333 0
M  V30 18 C -2.139318 0.516680 1.239129 0
M  V30 19 H -0.625523 -1.934670 -0.248803 0
M  V30 20 H -1.342641 -3.174287 0.913489 0
M  V30 21 H -2.223526 -1.759182 0.411041 0
M  V30 22 H -0.488663 -1.862077 2.818193 0
M  V30 23 H 0.365850 0.695898 1.809694 0
M  V30 24 H 2.094154 1.303725 0.213741 0
M  V30 25 H 2.324897 -2.017032 -1.580648 0
M  V30 26 H 3.423217 -2.328064 -3.711280 0
M  V30 27 H 4.446777 1.697799 -3.769476 0
M  V30 28 H 3.380609 2.088523 -1.654220 0
M  V30 29 H -2.671578 -2.371148 2.726036 0
M  V30 30 H -3.869363 -1.128640 2.105789 0
M  V30 31 H -3.302263 -1.083293 3.783320 0
M  V30 32 H -2.229178 0.533951 4.217835 0
M  V30 33 H -1.025789 1.393529 3.236538 0
M  V30 34 H -0.546654 -0.163995 4.115025 0
M  V30 35 H -2.283451 1.554822 1.648690 0
M  V30 36 H -3.152242 0.291876 0.795523 0
M  V30 37 H -1.358625 0.615789 0.461806 0
M  V30 END ATOM
M  V30 BEGIN BOND
M  V30 1 1 1 2
M  V30 2 1 2 3
M  V30 3 1 3 4
M  V30 4 2 4 5
M  V30 5 1 5 6
M  V30 6 3 6 7
M  V30 7 1 4 8
M  V30 8 1 8 9
M  V30 9 2 9 10
M  V30 10 1 10 11
M  V30 11 2 11 12
M  V30 12 1 12 13
M  V30 13 2 13 14
M  V30 14 1 2 15
M  V30 15 1 15 16
M  V30 16 1 15 17
M  V30 17 1 15 18
M  V30 18 1 14 9
M  V30 19 1 1 19
M  V30 20 1 1 20
M  V30 21 1 1 21
M  V30 22 1 2 22
M  V30 23 1 3 23
M  V30 24 1 8 24
M  V30 25 1 10 25
M  V30 26 1 11 26
M  V30 27 1 13 27
M  V30 28 1 14 28
M  V30 29 1 16 29
M  V30 30 1 16 30
M  V30 31 1 16 31
M  V30 32 1 17 32
M  V30 33 1 17 33
M  V30 34 1 17 34
M  V30 35 1 18 35
M  V30 36 1 18 36
M  V30 37 1 18 37
M  V30 END BOND
M  V30 END CTAB
M  END
>  <Dataset>  (770) 
OralDrugs

>  <Ligand_Instance>  (770) 
nan

>  <PDB_ID>  (770) 
nan

>  <Standardized_SMILES>  (770) 
CC(N/C(=N\C#N)Nc1ccncc1)C(C)(C)C

>  <Name>  (770) 
Pinacidil

>  <Pocket>  (770) 
nan

>  <ATP_Site>  (770) 
nan

>  <Peripheral>  (770) 
nan

>  <Num_H_Atoms_ProtBoundConf>  (770) 
nan

>  <Num_Resolved_Atoms>  (770) 
nan

>  <Num_Not_Resolved_Atoms>  (770) 
nan

$$$$
CHEMBL500
     RDKit          3D

  0  0  0  0  0  0  0  0  0  0999 V3000
M  V30 BEGIN CTAB
M  V30 COUNTS 38 39 0 0 0
M  V30 BEGIN ATOM
M  V30 1 C -0.117944 -3.860274 2.406052 0
M  V30 2 C -0.709608 -4.501849 1.205599 0
M  V30 3 C -2.138911 -4.903664 1.515989 0
M  V30 4 N -0.534284 -3.911496 -0.046904 0
M  V30 5 C -0.953530 -2.634953 -0.387037 0
M  V30 6 C -0.183970 -1.467554 0.258239 0
M  V30 7 O 1.145181 -1.528646 -0.082144 0
M  V30 8 C -0.819487 -0.180708 -0.215382 0
M  V30 9 O -0.340066 0.998731 0.202433 0
M  V30 10 C 0.809407 1.659421 0.042896 0
M  V30 11 C 1.983569 1.440612 -0.630277 0
M  V30 12 C 3.058883 2.282717 -0.657929 0
M  V30 13 C 3.020658 3.475208 0.032077 0
M  V30 14 C 1.870649 3.760774 0.731369 0
M  V30 15 N 1.626460 4.861320 1.463497 0
M  V30 16 C 0.393527 4.757321 1.979590 0
M  V30 17 C -0.104555 3.553225 1.535442 0
M  V30 18 C 0.803608 2.872091 0.729488 0
M  V30 19 H -0.863444 -3.208240 2.941921 0
M  V30 20 H 0.873939 -3.431908 2.302473 0
M  V30 21 H 0.026098 -4.700962 3.165128 0
M  V30 22 H -0.170984 -5.519056 1.130366 0
M  V30 23 H -2.891057 -4.308351 0.970606 0
M  V30 24 H -2.307745 -4.736106 2.594462 0
M  V30 25 H -2.323381 -6.002089 1.361126 0
M  V30 26 H -0.504375 -4.622640 -0.803177 0
M  V30 27 H -0.753500 -2.490210 -1.495397 0
M  V30 28 H -2.040377 -2.426636 -0.300733 0
M  V30 29 H -0.270460 -1.606969 1.335417 0
M  V30 30 H 1.712124 -2.046593 0.556002 0
M  V30 31 H -1.935176 -0.237311 -0.030481 0
M  V30 32 H -0.787849 -0.194628 -1.359123 0
M  V30 33 H 2.077432 0.558673 -1.202949 0
M  V30 34 H 3.953931 2.027022 -1.219688 0
M  V30 35 H 3.860872 4.129858 0.007407 0
M  V30 36 H 2.261332 5.674368 1.623949 0
M  V30 37 H -0.149377 5.459912 2.623553 0
M  V30 38 H -1.102871 3.188458 1.798320 0
M  V30 END ATOM
M  V30 BEGIN BOND
M  V30 1 1 1 2
M  V30 2 1 2 3
M  V30 3 1 2 4
M  V30 4 1 4 5
M  V30 5 1 5 6
M  V30 6 1 6 7
M  V30 7 1 6 8
M  V30 8 1 8 9
M  V30 9 1 9 10
M  V30 10 2 10 11
M  V30 11 1 11 12
M  V30 12 2 12 13
M  V30 13 1 13 14
M  V30 14 1 14 15
M  V30 15 1 15 16
M  V30 16 2 16 17
M  V30 17 1 17 18
M  V30 18 1 18 10
M  V30 19 2 18 14
M  V30 20 1 1 19
M  V30 21 1 1 20
M  V30 22 1 1 21
M  V30 23 1 2 22
M  V30 24 1 3 23
M  V30 25 1 3 24
M  V30 26 1 3 25
M  V30 27 1 4 26
M  V30 28 1 5 27
M  V30 29 1 5 28
M  V30 30 1 6 29
M  V30 31 1 7 30
M  V30 32 1 8 31
M  V30 33 1 8 32
M  V30 34 1 11 33
M  V30 35 1 12 34
M  V30 36 1 13 35
M  V30 37 1 15 36
M  V30 38 1 16 37
M  V30 39 1 17 38
M  V30 END BOND
M  V30 END CTAB
M  END
>  <Dataset>  (771) 
OralDrugs

>  <Ligand_Instance>  (771) 
nan

>  <PDB_ID>  (771) 
nan

>  <Standardized_SMILES>  (771) 
CC(C)NCC(O)COc1cccc2[nH]ccc12

>  <Name>  (771) 
Pindolol

>  <Pocket>  (771) 
nan

>  <ATP_Site>  (771) 
nan

>  <Peripheral>  (771) 
nan

>  <Num_H_Atoms_ProtBoundConf>  (771) 
nan

>  <Num_Resolved_Atoms>  (771) 
nan

>  <Num_Not_Resolved_Atoms>  (771) 
nan

$$$$
CHEMBL595
     RDKit          3D

  0  0  0  0  0  0  0  0  0  0999 V3000
M  V30 BEGIN CTAB
M  V30 COUNTS 45 47 0 0 0
M  V30 BEGIN ATOM
M  V30 1 C -0.968938 -5.288830 1.582719 0
M  V30 2 C -0.758273 -5.401021 0.105930 0
M  V30 3 C -0.168418 -4.175500 -0.487584 0
M  V30 4 C 1.223380 -4.116291 -0.538787 0
M  V30 5 C 1.826083 -2.996749 -1.082022 0
M  V30 6 C 1.042924 -1.963787 -1.561112 0
M  V30 7 C 1.788487 -0.793629 -2.130852 0
M  V30 8 C 0.866505 0.268992 -2.621790 0
M  V30 9 O 0.012240 0.827832 -1.690354 0
M  V30 10 C 0.311159 1.532436 -0.560722 0
M  V30 11 C -0.906074 1.859764 0.039515 0
M  V30 12 C -0.984976 2.589425 1.229561 0
M  V30 13 C 0.187629 3.013172 1.852228 0
M  V30 14 C 0.189882 3.790252 3.115110 0
M  V30 15 C 0.233008 2.790450 4.251365 0
M  V30 16 S 1.736108 1.757585 4.148574 0
M  V30 17 C 0.909224 0.192769 3.772278 0
M  V30 18 O 1.372868 -0.982190 3.719296 0
M  V30 19 N -0.467072 0.543632 3.526076 0
M  V30 20 C -0.831821 1.764341 4.100833 0
M  V30 21 O -1.996422 2.095023 4.515007 0
M  V30 22 C 1.382106 2.693783 1.265668 0
M  V30 23 C 1.430750 1.979011 0.101066 0
M  V30 24 N -0.308697 -2.035998 -1.504377 0
M  V30 25 C -0.921842 -3.118583 -0.978576 0
M  V30 26 H -1.024165 -4.219181 1.874396 0
M  V30 27 H -0.126280 -5.782549 2.140197 0
M  V30 28 H -1.885433 -5.831664 1.851648 0
M  V30 29 H -1.725016 -5.625233 -0.387822 0
M  V30 30 H -0.082904 -6.260894 -0.078010 0
M  V30 31 H 1.846685 -4.922458 -0.165088 0
M  V30 32 H 2.917678 -2.943592 -1.125374 0
M  V30 33 H 2.374418 -1.209398 -2.991945 0
M  V30 34 H 2.446580 -0.419201 -1.352580 0
M  V30 35 H 1.476205 1.092297 -3.094406 0
M  V30 36 H 0.200822 -0.180004 -3.422930 0
M  V30 37 H -1.941467 1.636065 -0.265796 0
M  V30 38 H -1.873032 2.888197 1.764954 0
M  V30 39 H -0.742919 4.359107 3.210936 0
M  V30 40 H 1.090494 4.416492 3.122550 0
M  V30 41 H 0.177643 3.338247 5.198671 0
M  V30 42 H -1.176492 -0.012646 2.980833 0
M  V30 43 H 2.355932 2.963633 1.649356 0
M  V30 44 H 2.320830 1.696599 -0.428275 0
M  V30 45 H -2.000567 -3.182707 -0.930219 0
M  V30 END ATOM
M  V30 BEGIN BOND
M  V30 1 1 1 2
M  V30 2 1 2 3
M  V30 3 2 3 4
M  V30 4 1 4 5
M  V30 5 2 5 6
M  V30 6 1 6 7
M  V30 7 1 7 8
M  V30 8 1 8 9
M  V30 9 1 9 10
M  V30 10 2 10 11
M  V30 11 1 11 12
M  V30 12 2 12 13
M  V30 13 1 13 14
M  V30 14 1 14 15
M  V30 15 1 15 16
M  V30 16 1 16 17
M  V30 17 2 17 18
M  V30 18 1 17 19
M  V30 19 1 19 20
M  V30 20 2 20 21
M  V30 21 1 13 22
M  V30 22 2 22 23
M  V30 23 1 6 24
M  V30 24 2 24 25
M  V30 25 1 25 3
M  V30 26 1 23 10
M  V30 27 1 20 15
M  V30 28 1 1 26
M  V30 29 1 1 27
M  V30 30 1 1 28
M  V30 31 1 2 29
M  V30 32 1 2 30
M  V30 33 1 4 31
M  V30 34 1 5 32
M  V30 35 1 7 33
M  V30 36 1 7 34
M  V30 37 1 8 35
M  V30 38 1 8 36
M  V30 39 1 11 37
M  V30 40 1 12 38
M  V30 41 1 14 39
M  V30 42 1 14 40
M  V30 43 1 15 41
M  V30 44 1 19 42
M  V30 45 1 22 43
M  V30 46 1 23 44
M  V30 47 1 25 45
M  V30 END BOND
M  V30 END CTAB
M  END
>  <Dataset>  (772) 
OralDrugs

>  <Ligand_Instance>  (772) 
nan

>  <PDB_ID>  (772) 
nan

>  <Standardized_SMILES>  (772) 
CCc1ccc(CCOc2ccc(CC3SC(=O)NC3=O)cc2)nc1

>  <Name>  (772) 
Pioglitazone

>  <Pocket>  (772) 
nan

>  <ATP_Site>  (772) 
nan

>  <Peripheral>  (772) 
nan

>  <Num_H_Atoms_ProtBoundConf>  (772) 
nan

>  <Num_Resolved_Atoms>  (772) 
nan

>  <Num_Not_Resolved_Atoms>  (772) 
nan

$$$$
CHEMBL1584
     RDKit          3D

  0  0  0  0  0  0  0  0  0  0999 V3000
M  V30 BEGIN CTAB
M  V30 COUNTS 59 62 0 0 0
M  V30 BEGIN ATOM
M  V30 1 C 1.110077 -0.288976 6.421892 0
M  V30 2 C 1.297319 -0.056805 4.965946 0
M  V30 3 O 1.134874 1.074670 4.476539 0
M  V30 4 C 1.677362 -1.170043 4.092290 0
M  V30 5 C 1.854341 -2.425884 4.635184 0
M  V30 6 C 2.212667 -3.461562 3.799049 0
M  V30 7 C 2.378878 -3.213598 2.472959 0
M  V30 8 C 2.225045 -2.002098 1.843881 0
M  V30 9 C 1.868322 -1.017915 2.739943 0
M  V30 10 N 2.414552 -1.755899 0.459751 0
M  V30 11 C 2.170939 -0.421064 -0.034433 0
M  V30 12 C 0.707668 -0.052161 -0.117774 0
M  V30 13 C 0.482353 1.344367 -0.604812 0
M  V30 14 N -0.837033 1.771586 -0.714391 0
M  V30 15 C -1.641499 1.963791 0.422454 0
M  V30 16 C -2.798056 0.970315 0.367544 0
M  V30 17 C -3.758557 1.494968 -0.672831 0
M  V30 18 C -4.788428 0.453367 -1.059356 0
M  V30 19 C -4.196072 -0.794113 -1.635074 0
M  V30 20 O -5.264902 -1.652642 -1.940994 0
M  V30 21 C -2.984131 1.986539 -1.852099 0
M  V30 22 C -1.559202 1.524029 -1.905164 0
M  V30 23 C 2.797703 -2.780533 -0.437300 0
M  V30 24 C 2.975860 -2.524447 -1.777330 0
M  V30 25 C 3.346619 -3.462506 -2.714744 0
M  V30 26 C 3.567865 -4.768850 -2.334353 0
M  V30 27 C 3.398306 -5.076605 -0.981976 0
M  V30 28 C 3.031759 -4.094284 -0.124886 0
M  V30 29 S 2.850279 -4.666180 1.549933 0
M  V30 30 H 1.923025 -0.920309 6.869580 0
M  V30 31 H 0.161872 -0.831074 6.633615 0
M  V30 32 H 1.025930 0.672628 6.970139 0
M  V30 33 H 1.709533 -2.572550 5.696254 0
M  V30 34 H 2.332943 -4.411182 4.291575 0
M  V30 35 H 1.714420 0.002128 2.432499 0
M  V30 36 H 2.693099 -0.163530 -0.970130 0
M  V30 37 H 2.613074 0.289815 0.730975 0
M  V30 38 H 0.179804 -0.367914 0.764807 0
M  V30 39 H 0.274290 -0.701492 -0.954013 0
M  V30 40 H 1.037638 2.042621 0.083101 0
M  V30 41 H 1.000865 1.449474 -1.579292 0
M  V30 42 H -1.136373 1.967883 1.384274 0
M  V30 43 H -2.126422 2.968900 0.330548 0
M  V30 44 H -2.389332 0.014425 0.000253 0
M  V30 45 H -3.273136 0.894835 1.372105 0
M  V30 46 H -4.334754 2.333140 -0.197821 0
M  V30 47 H -5.357844 0.147414 -0.150658 0
M  V30 48 H -5.505598 0.846358 -1.808048 0
M  V30 49 H -3.559299 -1.356906 -0.937272 0
M  V30 50 H -3.689055 -0.571387 -2.610534 0
M  V30 51 H -4.948771 -2.562904 -2.212540 0
M  V30 52 H -3.470978 1.648346 -2.799524 0
M  V30 53 H -3.045155 3.105957 -1.898273 0
M  V30 54 H -1.527836 0.469583 -2.257285 0
M  V30 55 H -1.077791 2.150194 -2.714877 0
M  V30 56 H 2.838601 -1.566269 -2.232272 0
M  V30 57 H 3.488825 -3.260193 -3.781083 0
M  V30 58 H 3.859705 -5.520204 -3.052185 0
M  V30 59 H 3.582679 -6.110193 -0.734219 0
M  V30 END ATOM
M  V30 BEGIN BOND
M  V30 1 1 1 2
M  V30 2 2 2 3
M  V30 3 1 2 4
M  V30 4 2 4 5
M  V30 5 1 5 6
M  V30 6 2 6 7
M  V30 7 1 7 8
M  V30 8 2 8 9
M  V30 9 1 8 10
M  V30 10 1 10 11
M  V30 11 1 11 12
M  V30 12 1 12 13
M  V30 13 1 13 14
M  V30 14 1 14 15
M  V30 15 1 15 16
M  V30 16 1 16 17
M  V30 17 1 17 18
M  V30 18 1 18 19
M  V30 19 1 19 20
M  V30 20 1 17 21
M  V30 21 1 21 22
M  V30 22 1 10 23
M  V30 23 2 23 24
M  V30 24 1 24 25
M  V30 25 2 25 26
M  V30 26 1 26 27
M  V30 27 2 27 28
M  V30 28 1 28 29
M  V30 29 1 9 4
M  V30 30 1 22 14
M  V30 31 1 28 23
M  V30 32 1 29 7
M  V30 33 1 1 30
M  V30 34 1 1 31
M  V30 35 1 1 32
M  V30 36 1 5 33
M  V30 37 1 6 34
M  V30 38 1 9 35
M  V30 39 1 11 36
M  V30 40 1 11 37
M  V30 41 1 12 38
M  V30 42 1 12 39
M  V30 43 1 13 40
M  V30 44 1 13 41
M  V30 45 1 15 42
M  V30 46 1 15 43
M  V30 47 1 16 44
M  V30 48 1 16 45
M  V30 49 1 17 46
M  V30 50 1 18 47
M  V30 51 1 18 48
M  V30 52 1 19 49
M  V30 53 1 19 50
M  V30 54 1 20 51
M  V30 55 1 21 52
M  V30 56 1 21 53
M  V30 57 1 22 54
M  V30 58 1 22 55
M  V30 59 1 24 56
M  V30 60 1 25 57
M  V30 61 1 26 58
M  V30 62 1 27 59
M  V30 END BOND
M  V30 END CTAB
M  END
>  <Dataset>  (773) 
OralDrugs

>  <Ligand_Instance>  (773) 
nan

>  <PDB_ID>  (773) 
nan

>  <Standardized_SMILES>  (773) 
CC(=O)c1ccc2c(c1)N(CCCN1CCC(CCO)CC1)c1ccccc1S2

>  <Name>  (773) 
Piperacetazine

>  <Pocket>  (773) 
nan

>  <ATP_Site>  (773) 
nan

>  <Peripheral>  (773) 
nan

>  <Num_H_Atoms_ProtBoundConf>  (773) 
nan

>  <Num_Resolved_Atoms>  (773) 
nan

>  <Num_Not_Resolved_Atoms>  (773) 
nan

$$$$
CHEMBL1585
     RDKit          3D

  0  0  0  0  0  0  0  0  0  0999 V3000
M  V30 BEGIN CTAB
M  V30 COUNTS 32 32 0 0 0
M  V30 BEGIN ATOM
M  V30 1 O 1.206631 -3.485847 0.913516 0
M  V30 2 C 0.176123 -2.922304 1.364901 0
M  V30 3 C -1.152900 -3.529867 1.316168 0
M  V30 4 C -1.189773 -4.896095 0.676651 0
M  V30 5 Br -0.078118 -6.159021 1.613506 0
M  V30 6 N 0.413541 -1.654664 1.921623 0
M  V30 7 C 1.777616 -1.127273 1.926166 0
M  V30 8 C 1.816845 -0.114087 0.785291 0
M  V30 9 N 0.529753 0.563580 0.800613 0
M  V30 10 C 0.569462 1.447539 -0.287200 0
M  V30 11 O 1.733706 1.218046 -0.761850 0
M  V30 12 C -0.335332 2.442907 -0.900102 0
M  V30 13 C 0.382847 3.055241 -2.098854 0
M  V30 14 Br 2.007580 3.915965 -1.569062 0
M  V30 15 C -0.650738 0.487306 1.653220 0
M  V30 16 C -0.551058 -0.751453 2.521757 0
M  V30 17 H -1.835390 -2.868277 0.754590 0
M  V30 18 H -1.578634 -3.650949 2.351465 0
M  V30 19 H -2.247797 -5.226294 0.726055 0
M  V30 20 H -0.915418 -4.885403 -0.385499 0
M  V30 21 H 2.532066 -1.907941 1.791959 0
M  V30 22 H 2.001542 -0.582360 2.862796 0
M  V30 23 H 2.654018 0.589411 0.879440 0
M  V30 24 H 1.929935 -0.693860 -0.157577 0
M  V30 25 H -0.565318 3.267921 -0.178153 0
M  V30 26 H -1.270786 1.959718 -1.228889 0
M  V30 27 H 0.581141 2.254687 -2.842221 0
M  V30 28 H -0.278138 3.780744 -2.585940 0
M  V30 29 H -0.606417 1.367503 2.330425 0
M  V30 30 H -1.554475 0.472995 1.042935 0
M  V30 31 H -1.558001 -1.204651 2.600556 0
M  V30 32 H -0.246627 -0.507513 3.569091 0
M  V30 END ATOM
M  V30 BEGIN BOND
M  V30 1 2 1 2
M  V30 2 1 2 3
M  V30 3 1 3 4
M  V30 4 1 4 5
M  V30 5 1 2 6
M  V30 6 1 6 7
M  V30 7 1 7 8
M  V30 8 1 8 9
M  V30 9 1 9 10
M  V30 10 2 10 11
M  V30 11 1 10 12
M  V30 12 1 12 13
M  V30 13 1 13 14
M  V30 14 1 9 15
M  V30 15 1 15 16
M  V30 16 1 16 6
M  V30 17 1 3 17
M  V30 18 1 3 18
M  V30 19 1 4 19
M  V30 20 1 4 20
M  V30 21 1 7 21
M  V30 22 1 7 22
M  V30 23 1 8 23
M  V30 24 1 8 24
M  V30 25 1 12 25
M  V30 26 1 12 26
M  V30 27 1 13 27
M  V30 28 1 13 28
M  V30 29 1 15 29
M  V30 30 1 15 30
M  V30 31 1 16 31
M  V30 32 1 16 32
M  V30 END BOND
M  V30 END CTAB
M  END
>  <Dataset>  (774) 
OralDrugs

>  <Ligand_Instance>  (774) 
nan

>  <PDB_ID>  (774) 
nan

>  <Standardized_SMILES>  (774) 
O=C(CCBr)N1CCN(C(=O)CCBr)CC1

>  <Name>  (774) 
Pipobroman

>  <Pocket>  (774) 
nan

>  <ATP_Site>  (774) 
nan

>  <Peripheral>  (774) 
nan

>  <Num_H_Atoms_ProtBoundConf>  (774) 
nan

>  <Num_Resolved_Atoms>  (774) 
nan

>  <Num_Not_Resolved_Atoms>  (774) 
nan

$$$$
CHEMBL9967
     RDKit          3D

  0  0  0  0  0  0  0  0  0  0999 V3000
M  V30 BEGIN CTAB
M  V30 COUNTS 47 50 0 0 0
M  V30 BEGIN ATOM
M  V30 1 C -1.931864 -3.601853 2.497519 0
M  V30 2 N -3.051426 -3.114439 1.774452 0
M  V30 3 C -2.845854 -2.754077 0.415372 0
M  V30 4 C -2.748875 -1.261735 0.276973 0
M  V30 5 N -2.310331 -0.614908 1.443867 0
M  V30 6 C -1.515783 0.523460 1.414351 0
M  V30 7 C -0.133085 0.428976 0.975927 0
M  V30 8 O -0.656866 -0.728921 0.954676 0
M  V30 9 N 1.221774 0.411313 0.558057 0
M  V30 10 C 1.822551 1.722983 0.571172 0
M  V30 11 C 1.253516 2.614642 1.453610 0
M  V30 12 C 1.732796 3.904253 1.559267 0
M  V30 13 C 2.794455 4.339966 0.786448 0
M  V30 14 C 3.395557 3.465980 -0.117378 0
M  V30 15 C 2.880948 2.191394 -0.185109 0
M  V30 16 C 3.634488 1.435208 -1.178316 0
M  V30 17 O 4.431691 2.090206 -1.924117 0
M  V30 18 N 3.574673 0.032404 -1.405809 0
M  V30 19 C 2.900979 -1.002287 -0.700945 0
M  V30 20 C 3.335618 -2.293528 -0.916530 0
M  V30 21 C 2.697652 -3.323121 -0.246318 0
M  V30 22 C 1.640788 -3.084537 0.629606 0
M  V30 23 N 1.207739 -1.807899 0.845811 0
M  V30 24 C 1.848939 -0.806894 0.175709 0
M  V30 25 C -3.081681 -0.901221 2.621679 0
M  V30 26 C -3.890154 -2.174492 2.440276 0
M  V30 27 H -1.178371 -4.034277 1.786352 0
M  V30 28 H -2.281529 -4.364814 3.223632 0
M  V30 29 H -1.468644 -2.770240 3.065202 0
M  V30 30 H -1.909262 -3.170428 -0.016566 0
M  V30 31 H -3.708132 -3.137840 -0.191497 0
M  V30 32 H -3.828527 -0.915308 0.115111 0
M  V30 33 H -2.245411 -0.907411 -0.629932 0
M  V30 34 H -1.522631 0.993830 2.450816 0
M  V30 35 H -2.087829 1.307665 0.811883 0
M  V30 36 H 0.434044 2.222464 2.028452 0
M  V30 37 H 1.266164 4.582753 2.260541 0
M  V30 38 H 3.182107 5.358234 0.861577 0
M  V30 39 H 4.218266 3.790184 -0.722220 0
M  V30 40 H 4.111877 -0.359336 -2.236254 0
M  V30 41 H 4.157318 -2.420036 -1.604552 0
M  V30 42 H 3.095923 -4.307882 -0.467965 0
M  V30 43 H 1.237540 -3.971666 1.082182 0
M  V30 44 H -3.728088 -0.026623 2.831950 0
M  V30 45 H -2.407470 -1.023361 3.481591 0
M  V30 46 H -4.186381 -2.556798 3.452160 0
M  V30 47 H -4.769125 -1.924250 1.818884 0
M  V30 END ATOM
M  V30 BEGIN BOND
M  V30 1 1 1 2
M  V30 2 1 2 3
M  V30 3 1 3 4
M  V30 4 1 4 5
M  V30 5 1 5 6
M  V30 6 1 6 7
M  V30 7 2 7 8
M  V30 8 1 7 9
M  V30 9 1 9 10
M  V30 10 2 10 11
M  V30 11 1 11 12
M  V30 12 2 12 13
M  V30 13 1 13 14
M  V30 14 2 14 15
M  V30 15 1 15 16
M  V30 16 2 16 17
M  V30 17 1 16 18
M  V30 18 1 18 19
M  V30 19 2 19 20
M  V30 20 1 20 21
M  V30 21 2 21 22
M  V30 22 1 22 23
M  V30 23 2 23 24
M  V30 24 1 5 25
M  V30 25 1 25 26
M  V30 26 1 26 2
M  V30 27 1 24 9
M  V30 28 1 15 10
M  V30 29 1 24 19
M  V30 30 1 1 27
M  V30 31 1 1 28
M  V30 32 1 1 29
M  V30 33 1 3 30
M  V30 34 1 3 31
M  V30 35 1 4 32
M  V30 36 1 4 33
M  V30 37 1 6 34
M  V30 38 1 6 35
M  V30 39 1 11 36
M  V30 40 1 12 37
M  V30 41 1 13 38
M  V30 42 1 14 39
M  V30 43 1 18 40
M  V30 44 1 20 41
M  V30 45 1 21 42
M  V30 46 1 22 43
M  V30 47 1 25 44
M  V30 48 1 25 45
M  V30 49 1 26 46
M  V30 50 1 26 47
M  V30 END BOND
M  V30 END CTAB
M  END
>  <Dataset>  (775) 
OralDrugs

>  <Ligand_Instance>  (775) 
nan

>  <PDB_ID>  (775) 
nan

>  <Standardized_SMILES>  (775) 
CN1CCN(CC(=O)N2c3ccccc3C(=O)Nc3cccnc32)CC1

>  <Name>  (775) 
Pirenzepine

>  <Pocket>  (775) 
nan

>  <ATP_Site>  (775) 
nan

>  <Peripheral>  (775) 
nan

>  <Num_H_Atoms_ProtBoundConf>  (775) 
nan

>  <Num_Resolved_Atoms>  (775) 
nan

>  <Num_Not_Resolved_Atoms>  (775) 
nan

$$$$
CHEMBL1256391
     RDKit          3D

  0  0  0  0  0  0  0  0  0  0999 V3000
M  V30 BEGIN CTAB
M  V30 COUNTS 25 26 0 0 0
M  V30 BEGIN ATOM
M  V30 1 C -0.303831 -1.195387 4.340593 0
M  V30 2 C 0.301813 -1.471670 2.998590 0
M  V30 3 C 1.058475 -2.586752 2.705784 0
M  V30 4 C 1.596628 -2.799045 1.453724 0
M  V30 5 C 1.342087 -1.826816 0.479054 0
M  V30 6 O 1.818176 -1.984137 -0.683358 0
M  V30 7 N 0.601674 -0.744174 0.780820 0
M  V30 8 C 0.323480 0.264058 -0.186825 0
M  V30 9 C 0.428345 1.600950 0.142389 0
M  V30 10 C 0.161037 2.611663 -0.788298 0
M  V30 11 C -0.216291 2.193349 -2.063814 0
M  V30 12 C -0.337818 0.856176 -2.449714 0
M  V30 13 C -0.056470 -0.058251 -1.473252 0
M  V30 14 C 0.060649 -0.514537 2.010424 0
M  V30 15 H -0.227623 -2.038803 5.025319 0
M  V30 16 H 0.259574 -0.301792 4.719884 0
M  V30 17 H -1.365292 -0.852720 4.177291 0
M  V30 18 H 1.205865 -3.286965 3.516803 0
M  V30 19 H 2.192576 -3.693801 1.252821 0
M  V30 20 H 0.728277 1.906440 1.156853 0
M  V30 21 H 0.230522 3.669792 -0.573715 0
M  V30 22 H -0.427435 2.969300 -2.798542 0
M  V30 23 H -0.632581 0.621229 -3.448036 0
M  V30 24 H -0.125617 -1.109366 -1.686869 0
M  V30 25 H -0.530775 0.366626 2.222035 0
M  V30 END ATOM
M  V30 BEGIN BOND
M  V30 1 1 1 2
M  V30 2 1 2 3
M  V30 3 2 3 4
M  V30 4 1 4 5
M  V30 5 2 5 6
M  V30 6 1 5 7
M  V30 7 1 7 8
M  V30 8 2 8 9
M  V30 9 1 9 10
M  V30 10 2 10 11
M  V30 11 1 11 12
M  V30 12 2 12 13
M  V30 13 1 7 14
M  V30 14 2 14 2
M  V30 15 1 13 8
M  V30 16 1 1 15
M  V30 17 1 1 16
M  V30 18 1 1 17
M  V30 19 1 3 18
M  V30 20 1 4 19
M  V30 21 1 9 20
M  V30 22 1 10 21
M  V30 23 1 11 22
M  V30 24 1 12 23
M  V30 25 1 13 24
M  V30 26 1 14 25
M  V30 END BOND
M  V30 END CTAB
M  END
>  <Dataset>  (776) 
OralDrugs

>  <Ligand_Instance>  (776) 
nan

>  <PDB_ID>  (776) 
nan

>  <Standardized_SMILES>  (776) 
Cc1ccc(=O)n(-c2ccccc2)c1

>  <Name>  (776) 
Pirfenidone

>  <Pocket>  (776) 
nan

>  <ATP_Site>  (776) 
nan

>  <Peripheral>  (776) 
nan

>  <Num_H_Atoms_ProtBoundConf>  (776) 
nan

>  <Num_Resolved_Atoms>  (776) 
nan

>  <Num_Not_Resolved_Atoms>  (776) 
nan

$$$$
CHEMBL527
     RDKit          3D

  0  0  0  0  0  0  0  0  0  0999 V3000
M  V30 BEGIN CTAB
M  V30 COUNTS 36 38 0 0 0
M  V30 BEGIN ATOM
M  V30 1 C -0.828204 -2.836616 1.226309 0
M  V30 2 N -1.183350 -1.507125 0.921313 0
M  V30 3 C -0.273067 -0.482329 0.621028 0
M  V30 4 C 1.127058 -0.695831 0.363047 0
M  V30 5 O 1.882035 0.290692 0.120419 0
M  V30 6 N 2.005919 -1.777595 0.287575 0
M  V30 7 C 3.356385 -1.924865 0.037942 0
M  V30 8 C 4.291739 -0.957222 -0.229932 0
M  V30 9 C 5.632082 -1.132925 -0.474889 0
M  V30 10 C 6.048571 -2.443960 -0.439293 0
M  V30 11 C 5.165583 -3.461828 -0.177127 0
M  V30 12 N 3.882586 -3.165467 0.045950 0
M  V30 13 C -0.576934 0.816482 0.527578 0
M  V30 14 O 0.325447 1.861177 0.236438 0
M  V30 15 C -1.915063 1.341540 0.705037 0
M  V30 16 C -2.239037 2.679730 0.681105 0
M  V30 17 C -3.502428 3.179877 0.904119 0
M  V30 18 C -4.550983 2.327407 1.174136 0
M  V30 19 C -4.259662 0.955960 1.205716 0
M  V30 20 C -2.988840 0.548099 0.974087 0
M  V30 21 S -2.875988 -1.185973 0.981449 0
M  V30 22 O -3.532496 -1.792570 2.184754 0
M  V30 23 O -3.463170 -1.782565 -0.282115 0
M  V30 24 H -1.730495 -3.352036 1.709845 0
M  V30 25 H -0.067302 -2.933277 2.032689 0
M  V30 26 H -0.645599 -3.458887 0.327903 0
M  V30 27 H 1.469672 -2.651924 0.451247 0
M  V30 28 H 4.017078 0.077558 -0.268465 0
M  V30 29 H 6.329877 -0.346591 -0.680467 0
M  V30 30 H 7.065604 -2.757644 -0.609151 0
M  V30 31 H 5.474077 -4.509750 -0.143927 0
M  V30 32 H 0.549521 2.121116 -0.721083 0
M  V30 33 H -1.460680 3.415174 0.473876 0
M  V30 34 H -3.671704 4.262499 0.865949 0
M  V30 35 H -5.503577 2.785329 1.337760 0
M  V30 36 H -5.140991 0.367467 1.424162 0
M  V30 END ATOM
M  V30 BEGIN BOND
M  V30 1 1 1 2
M  V30 2 1 2 3
M  V30 3 1 3 4
M  V30 4 2 4 5
M  V30 5 1 4 6
M  V30 6 1 6 7
M  V30 7 2 7 8
M  V30 8 1 8 9
M  V30 9 2 9 10
M  V30 10 1 10 11
M  V30 11 2 11 12
M  V30 12 2 3 13
M  V30 13 1 13 14
M  V30 14 1 13 15
M  V30 15 2 15 16
M  V30 16 1 16 17
M  V30 17 2 17 18
M  V30 18 1 18 19
M  V30 19 2 19 20
M  V30 20 1 20 21
M  V30 21 2 21 22
M  V30 22 2 21 23
M  V30 23 1 21 2
M  V30 24 1 12 7
M  V30 25 1 20 15
M  V30 26 1 1 24
M  V30 27 1 1 25
M  V30 28 1 1 26
M  V30 29 1 6 27
M  V30 30 1 8 28
M  V30 31 1 9 29
M  V30 32 1 10 30
M  V30 33 1 11 31
M  V30 34 1 14 32
M  V30 35 1 16 33
M  V30 36 1 17 34
M  V30 37 1 18 35
M  V30 38 1 19 36
M  V30 END BOND
M  V30 END CTAB
M  END
>  <Dataset>  (777) 
OralDrugs

>  <Ligand_Instance>  (777) 
nan

>  <PDB_ID>  (777) 
nan

>  <Standardized_SMILES>  (777) 
CN1C(C(=O)Nc2ccccn2)=C(O)c2ccccc2S1(=O)=O

>  <Name>  (777) 
Piroxicam

>  <Pocket>  (777) 
nan

>  <ATP_Site>  (777) 
nan

>  <Peripheral>  (777) 
nan

>  <Num_H_Atoms_ProtBoundConf>  (777) 
nan

>  <Num_Resolved_Atoms>  (777) 
nan

>  <Num_Not_Resolved_Atoms>  (777) 
nan

$$$$
CHEMBL4650485
     RDKit          3D

  0  0  0  0  0  0  0  0  0  0999 V3000
M  V30 BEGIN CTAB
M  V30 COUNTS 55 57 0 0 0
M  V30 BEGIN ATOM
M  V30 1 C 1.808764 -1.958681 3.543854 0
M  V30 2 O 2.252558 -0.831375 2.835896 0
M  V30 3 C 3.631131 -0.464176 3.055968 0
M  V30 4 C 4.559527 -1.042467 3.840181 0
M  V30 5 C 5.812772 -0.436315 3.833787 0
M  V30 6 C 5.931621 0.700494 3.006060 0
M  V30 7 F 7.244445 1.028642 3.231511 0
M  V30 8 C 4.771144 1.116521 2.262228 0
M  V30 9 C 3.384588 0.520863 2.209315 0
M  V30 10 C 3.120114 1.577954 1.300776 0
M  V30 11 O 2.031795 0.914873 1.314778 0
M  V30 12 N 3.224346 2.699090 0.506716 0
M  V30 13 C 2.154981 3.154722 -0.314689 0
M  V30 14 C 0.999289 2.228673 -0.375642 0
M  V30 15 C -0.145990 2.216177 0.418363 0
M  V30 16 C -1.032572 1.197572 0.154977 0
M  V30 17 C -0.921087 0.201994 -0.789919 0
M  V30 18 C -1.951378 -0.818503 -0.898248 0
M  V30 19 N -2.355311 -1.450490 0.232911 0
M  V30 20 N -3.290344 -2.349789 -0.026513 0
M  V30 21 C -3.899367 -3.170959 0.995287 0 CFG=1
M  V30 22 C -5.366695 -2.740438 1.088244 0
M  V30 23 C -3.864665 -4.638410 0.734002 0
M  V30 24 F -4.493484 -5.053871 -0.396015 0
M  V30 25 F -4.531395 -5.259747 1.800885 0
M  V30 26 F -2.539797 -5.089072 0.828500 0
M  V30 27 C -3.504204 -2.309887 -1.336221 0
M  V30 28 N -4.410472 -3.083910 -2.096492 0
M  V30 29 C -2.690806 -1.370434 -1.912080 0
M  V30 30 C -2.588260 -0.986538 -3.275691 0
M  V30 31 N -1.791087 -0.007714 -3.891430 0
M  V30 32 O -3.321950 -1.609647 -4.084321 0
M  V30 33 C 0.230521 0.262139 -1.548710 0
M  V30 34 C 1.185765 1.247436 -1.363621 0
M  V30 35 H 2.498558 -2.829375 3.417885 0
M  V30 36 H 0.822126 -2.319629 3.176461 0
M  V30 37 H 1.729501 -1.816216 4.641106 0
M  V30 38 H 4.060817 -1.887445 4.308253 0
M  V30 39 H 6.399549 -1.037585 4.504554 0
M  V30 40 H 5.428935 1.961902 1.859233 0
M  V30 41 H 4.195649 2.953272 0.750950 0
M  V30 42 H 2.550650 3.364500 -1.315233 0
M  V30 43 H 1.820848 4.149362 0.077307 0
M  V30 44 H -0.192632 3.008680 1.135653 0
M  V30 45 H -1.926015 1.207422 0.790844 0
M  V30 46 H -3.476992 -2.962645 2.000361 0
M  V30 47 H -5.873864 -3.129319 0.195062 0
M  V30 48 H -5.362529 -1.631059 1.174716 0
M  V30 49 H -5.829937 -3.204435 1.984060 0
M  V30 50 H -5.439714 -3.189212 -2.234380 0
M  V30 51 H -4.119761 -3.834148 -2.788842 0
M  V30 52 H -2.439665 0.804851 -3.746441 0
M  V30 53 H -0.973143 0.370074 -4.383322 0
M  V30 54 H 0.382950 -0.502398 -2.300683 0
M  V30 55 H 2.045254 1.187736 -2.024946 0
M  V30 END ATOM
M  V30 BEGIN BOND
M  V30 1 1 1 2
M  V30 2 1 2 3
M  V30 3 2 3 4
M  V30 4 1 4 5
M  V30 5 2 5 6
M  V30 6 1 6 7
M  V30 7 1 6 8
M  V30 8 2 8 9
M  V30 9 1 9 10
M  V30 10 2 10 11
M  V30 11 1 10 12
M  V30 12 1 12 13
M  V30 13 1 13 14
M  V30 14 2 14 15
M  V30 15 1 15 16
M  V30 16 2 16 17
M  V30 17 1 17 18
M  V30 18 2 18 19
M  V30 19 1 19 20
M  V30 20 1 20 21
M  V30 21 1 21 22
M  V30 22 1 21 23
M  V30 23 1 23 24
M  V30 24 1 23 25
M  V30 25 1 23 26
M  V30 26 1 20 27
M  V30 27 1 27 28
M  V30 28 2 27 29
M  V30 29 1 29 30
M  V30 30 1 30 31
M  V30 31 2 30 32
M  V30 32 1 17 33
M  V30 33 2 33 34
M  V30 34 1 9 3
M  V30 35 1 34 14
M  V30 36 1 29 18
M  V30 37 1 1 35
M  V30 38 1 1 36
M  V30 39 1 1 37
M  V30 40 1 4 38
M  V30 41 1 5 39
M  V30 42 1 8 40
M  V30 43 1 12 41
M  V30 44 1 13 42
M  V30 45 1 13 43
M  V30 46 1 15 44
M  V30 47 1 16 45
M  V30 48 1 21 46 CFG=1
M  V30 49 1 22 47
M  V30 50 1 22 48
M  V30 51 1 22 49
M  V30 52 1 28 50
M  V30 53 1 28 51
M  V30 54 1 31 52
M  V30 55 1 31 53
M  V30 56 1 33 54
M  V30 57 1 34 55
M  V30 END BOND
M  V30 END CTAB
M  END
>  <Dataset>  (778) 
OralDrugs

>  <Ligand_Instance>  (778) 
nan

>  <PDB_ID>  (778) 
nan

>  <Standardized_SMILES>  (778) 
COc1ccc(F)cc1C(=O)NCc1ccc(-c2nn([C@@H](C)C(F)(F)F)c(N)c2C(N)=O)cc1

>  <Name>  (778) 
Pirtobrutinib

>  <Pocket>  (778) 
nan

>  <ATP_Site>  (778) 
nan

>  <Peripheral>  (778) 
nan

>  <Num_H_Atoms_ProtBoundConf>  (778) 
nan

>  <Num_Resolved_Atoms>  (778) 
nan

>  <Num_Not_Resolved_Atoms>  (778) 
nan

$$$$
CHEMBL1201753
     RDKit          3D

  0  0  0  0  0  0  0  0  0  0999 V3000
M  V30 BEGIN CTAB
M  V30 COUNTS 55 58 0 0 0
M  V30 BEGIN ATOM
M  V30 1 O 1.905827 -3.200245 3.421699 0
M  V30 2 C 2.079105 -3.501226 2.191371 0
M  V30 3 O 1.040189 -4.220438 2.755452 0
M  V30 4 C 3.169593 -2.793086 1.472521 0
M  V30 5 C 3.893267 -1.816807 2.318579 0 CFG=2
M  V30 6 O 4.472264 -2.522952 3.412531 0
M  V30 7 C 3.165269 -0.673701 2.898319 0
M  V30 8 C 2.503224 0.307223 2.019296 0 CFG=2
M  V30 9 O 1.945327 1.283666 2.922394 0
M  V30 10 C 1.358394 -0.227342 1.209482 0
M  V30 11 C 0.427023 0.606476 0.858051 0
M  V30 12 C -0.814363 0.677466 0.136626 0
M  V30 13 C -1.570781 1.850507 0.014132 0
M  V30 14 C -1.096007 3.106458 0.663153 0
M  V30 15 C -1.609636 3.317595 2.093184 0
M  V30 16 C -2.026541 4.214350 0.966647 0
M  V30 17 N -2.717985 1.890948 -0.671148 0
M  V30 18 C -3.225092 0.824704 -1.285248 0
M  V30 19 C -4.409894 1.025469 -1.945628 0
M  V30 20 C -4.986406 -0.041108 -2.600172 0
M  V30 21 C -4.346214 -1.260685 -2.561531 0
M  V30 22 C -3.159252 -1.400257 -1.882540 0
M  V30 23 C -2.531714 -0.366378 -1.206246 0
M  V30 24 C -1.340056 -0.422310 -0.498903 0
M  V30 25 C -0.824920 -1.763686 -0.577191 0
M  V30 26 C -1.036193 -2.893009 0.228796 0
M  V30 27 C -0.415887 -4.070368 -0.126825 0
M  V30 28 C 0.400047 -4.204645 -1.226922 0
M  V30 29 F 0.902729 -5.456911 -1.380647 0
M  V30 30 C 0.615620 -3.106623 -2.024436 0
M  V30 31 C -0.000696 -1.897138 -1.689317 0
M  V30 32 H 0.806256 -5.161457 2.454131 0
M  V30 33 H 3.935198 -3.640296 1.292426 0
M  V30 34 H 2.897777 -2.461781 0.465081 0
M  V30 35 H 4.758833 -1.410098 1.743201 0
M  V30 36 H 5.421261 -2.745531 3.224600 0
M  V30 37 H 2.490793 -0.988858 3.763173 0
M  V30 38 H 3.954076 -0.071353 3.471492 0
M  V30 39 H 3.237842 0.840101 1.401116 0
M  V30 40 H 2.096865 2.181698 2.566888 0
M  V30 41 H 1.066592 -1.161703 0.820734 0
M  V30 42 H 0.656980 1.623552 1.238829 0
M  V30 43 H -0.031751 3.403096 0.530814 0
M  V30 44 H -0.963568 3.792423 2.841539 0
M  V30 45 H -2.392721 2.637602 2.483905 0
M  V30 46 H -1.637529 5.251736 0.949029 0
M  V30 47 H -3.095309 4.159063 0.649096 0
M  V30 48 H -4.914004 1.974529 -1.979814 0
M  V30 49 H -5.904393 -0.000503 -3.144840 0
M  V30 50 H -4.730422 -2.145017 -3.047176 0
M  V30 51 H -2.660036 -2.363538 -1.855692 0
M  V30 52 H -1.680455 -2.660551 1.041572 0
M  V30 53 H -0.658884 -4.868968 0.574021 0
M  V30 54 H 1.256607 -3.265058 -2.864488 0
M  V30 55 H 0.268836 -1.125972 -2.417872 0
M  V30 END ATOM
M  V30 BEGIN BOND
M  V30 1 2 1 2
M  V30 2 1 2 3
M  V30 3 1 2 4
M  V30 4 1 4 5
M  V30 5 1 5 6
M  V30 6 1 5 7
M  V30 7 1 7 8
M  V30 8 1 8 9
M  V30 9 1 8 10
M  V30 10 2 10 11
M  V30 11 1 11 12
M  V30 12 2 12 13
M  V30 13 1 13 14
M  V30 14 1 14 15
M  V30 15 1 15 16
M  V30 16 1 13 17
M  V30 17 2 17 18
M  V30 18 1 18 19
M  V30 19 2 19 20
M  V30 20 1 20 21
M  V30 21 2 21 22
M  V30 22 1 22 23
M  V30 23 2 23 24
M  V30 24 1 24 25
M  V30 25 2 25 26
M  V30 26 1 26 27
M  V30 27 2 27 28
M  V30 28 1 28 29
M  V30 29 1 28 30
M  V30 30 2 30 31
M  V30 31 1 24 12
M  V30 32 1 31 25
M  V30 33 1 16 14
M  V30 34 1 23 18
M  V30 35 1 3 32
M  V30 36 1 4 33
M  V30 37 1 4 34
M  V30 38 1 5 35 CFG=3
M  V30 39 1 6 36
M  V30 40 1 7 37
M  V30 41 1 7 38
M  V30 42 1 8 39 CFG=3
M  V30 43 1 9 40
M  V30 44 1 10 41
M  V30 45 1 11 42
M  V30 46 1 14 43
M  V30 47 1 15 44
M  V30 48 1 15 45
M  V30 49 1 16 46
M  V30 50 1 16 47
M  V30 51 1 19 48
M  V30 52 1 20 49
M  V30 53 1 21 50
M  V30 54 1 22 51
M  V30 55 1 26 52
M  V30 56 1 27 53
M  V30 57 1 30 54
M  V30 58 1 31 55
M  V30 END BOND
M  V30 END CTAB
M  END
>  <Dataset>  (779) 
OralDrugs

>  <Ligand_Instance>  (779) 
nan

>  <PDB_ID>  (779) 
nan

>  <Standardized_SMILES>  (779) 
O=C(O)C[C@H](O)C[C@H](O)/C=C/c1c(C2CC2)nc2ccccc2c1-c1ccc(F)cc1

>  <Name>  (779) 
Pitavastatin

>  <Pocket>  (779) 
nan

>  <ATP_Site>  (779) 
nan

>  <Peripheral>  (779) 
nan

>  <Num_H_Atoms_ProtBoundConf>  (779) 
nan

>  <Num_Resolved_Atoms>  (779) 
nan

>  <Num_Not_Resolved_Atoms>  (779) 
nan

$$$$
CHEMBL462605
     RDKit          3D

  0  0  0  0  0  0  0  0  0  0999 V3000
M  V30 BEGIN CTAB
M  V30 COUNTS 46 47 0 0 0
M  V30 BEGIN ATOM
M  V30 1 Cl -4.710632 -3.593235 4.628468 0
M  V30 2 C -3.420643 -3.781377 3.456389 0
M  V30 3 C -2.132034 -3.396120 3.817629 0
M  V30 4 C -1.129879 -3.551113 2.883535 0
M  V30 5 C -1.294383 -4.056754 1.617400 0
M  V30 6 C -0.179414 -4.194097 0.672093 0
M  V30 7 C -0.023619 -2.925857 -0.169077 0
M  V30 8 C 0.247579 -1.735657 0.688500 0
M  V30 9 O 0.398038 -0.608575 -0.076433 0
M  V30 10 C -0.665709 -0.240665 -0.852370 0
M  V30 11 C -0.383184 1.043513 -1.641288 0
M  V30 12 C -0.082645 2.193341 -0.730252 0
M  V30 13 N 1.050943 2.005320 0.111577 0
M  V30 14 C 1.285623 3.138180 0.990498 0
M  V30 15 C 2.391430 2.888874 1.962649 0
M  V30 16 C 3.682941 2.648597 1.194672 0
M  V30 17 C 3.430587 1.441146 0.298011 0
M  V30 18 C 2.276978 1.745304 -0.597040 0
M  V30 19 C -2.589142 -4.435340 1.277139 0
M  V30 20 C -3.608989 -4.289811 2.195174 0
M  V30 21 H -1.981261 -2.997200 4.805299 0
M  V30 22 H -0.132777 -3.242620 3.191089 0
M  V30 23 H -0.398806 -5.017586 -0.034498 0
M  V30 24 H 0.792428 -4.334578 1.174456 0
M  V30 25 H -0.994469 -2.822947 -0.726194 0
M  V30 26 H 0.755610 -3.088834 -0.934358 0
M  V30 27 H 1.148614 -1.910829 1.309366 0
M  V30 28 H -0.587836 -1.638855 1.422302 0
M  V30 29 H -1.595694 -0.089481 -0.256024 0
M  V30 30 H -0.815760 -1.050265 -1.626646 0
M  V30 31 H 0.447606 0.849384 -2.344471 0
M  V30 32 H -1.303377 1.201635 -2.239382 0
M  V30 33 H 0.197383 3.050377 -1.414360 0
M  V30 34 H -0.976752 2.571714 -0.200234 0
M  V30 35 H 0.335458 3.324126 1.530164 0
M  V30 36 H 1.541947 4.029407 0.382095 0
M  V30 37 H 2.479810 3.761964 2.622934 0
M  V30 38 H 2.162271 1.972675 2.576746 0
M  V30 39 H 4.518332 2.416095 1.870485 0
M  V30 40 H 3.923698 3.551891 0.614686 0
M  V30 41 H 3.169024 0.602640 0.978225 0
M  V30 42 H 4.317258 1.241479 -0.306565 0
M  V30 43 H 2.222122 0.981508 -1.366321 0
M  V30 44 H 2.533709 2.715586 -1.116192 0
M  V30 45 H -2.775075 -4.842119 0.286557 0
M  V30 46 H -4.639013 -4.577308 1.961470 0
M  V30 END ATOM
M  V30 BEGIN BOND
M  V30 1 1 1 2
M  V30 2 2 2 3
M  V30 3 1 3 4
M  V30 4 2 4 5
M  V30 5 1 5 6
M  V30 6 1 6 7
M  V30 7 1 7 8
M  V30 8 1 8 9
M  V30 9 1 9 10
M  V30 10 1 10 11
M  V30 11 1 11 12
M  V30 12 1 12 13
M  V30 13 1 13 14
M  V30 14 1 14 15
M  V30 15 1 15 16
M  V30 16 1 16 17
M  V30 17 1 17 18
M  V30 18 1 5 19
M  V30 19 2 19 20
M  V30 20 1 20 2
M  V30 21 1 18 13
M  V30 22 1 3 21
M  V30 23 1 4 22
M  V30 24 1 6 23
M  V30 25 1 6 24
M  V30 26 1 7 25
M  V30 27 1 7 26
M  V30 28 1 8 27
M  V30 29 1 8 28
M  V30 30 1 10 29
M  V30 31 1 10 30
M  V30 32 1 11 31
M  V30 33 1 11 32
M  V30 34 1 12 33
M  V30 35 1 12 34
M  V30 36 1 14 35
M  V30 37 1 14 36
M  V30 38 1 15 37
M  V30 39 1 15 38
M  V30 40 1 16 39
M  V30 41 1 16 40
M  V30 42 1 17 41
M  V30 43 1 17 42
M  V30 44 1 18 43
M  V30 45 1 18 44
M  V30 46 1 19 45
M  V30 47 1 20 46
M  V30 END BOND
M  V30 END CTAB
M  END
>  <Dataset>  (780) 
OralDrugs

>  <Ligand_Instance>  (780) 
nan

>  <PDB_ID>  (780) 
nan

>  <Standardized_SMILES>  (780) 
Clc1ccc(CCCOCCCN2CCCCC2)cc1

>  <Name>  (780) 
Pitolisant

>  <Pocket>  (780) 
nan

>  <ATP_Site>  (780) 
nan

>  <Peripheral>  (780) 
nan

>  <Num_H_Atoms_ProtBoundConf>  (780) 
nan

>  <Num_Resolved_Atoms>  (780) 
nan

>  <Num_Not_Resolved_Atoms>  (780) 
nan

$$$$
CHEMBL1587
     RDKit          3D

  0  0  0  0  0  0  0  0  0  0999 V3000
M  V30 BEGIN CTAB
M  V30 COUNTS 38 39 0 0 0
M  V30 BEGIN ATOM
M  V30 1 C -1.854642 -2.624663 1.127159 0
M  V30 2 N -2.227579 -1.342360 1.594682 0
M  V30 3 C -2.394229 -0.293661 0.682811 0
M  V30 4 C -2.280100 -0.686348 -0.774438 0
M  V30 5 S -0.638126 -1.396231 -1.128604 0
M  V30 6 C -0.543746 -1.848127 -2.864500 0
M  V30 7 C 0.815550 -2.447628 -3.206124 0
M  V30 8 F 1.014460 -3.580266 -2.439660 0
M  V30 9 F 0.778081 -2.829262 -4.532625 0
M  V30 10 F 1.835291 -1.559696 -2.972078 0
M  V30 11 N -1.558399 0.876378 0.842678 0
M  V30 12 C -0.294429 0.894174 1.446389 0
M  V30 13 C 0.656576 1.765526 0.937711 0
M  V30 14 C 1.920377 1.783881 1.534481 0
M  V30 15 Cl 3.144291 2.871567 0.917423 0
M  V30 16 C 2.160082 0.936482 2.598020 0
M  V30 17 S 3.754728 0.991747 3.314901 0
M  V30 18 N 4.944650 0.580169 2.106926 0
M  V30 19 O 4.090109 2.367930 3.807544 0
M  V30 20 O 3.884734 0.003095 4.434683 0
M  V30 21 C 1.205751 0.072910 3.096548 0
M  V30 22 C -0.041091 0.051683 2.511380 0
M  V30 23 S -1.354591 -0.987322 3.033563 0
M  V30 24 O -2.247225 -0.258846 4.008276 0
M  V30 25 O -0.851335 -2.244115 3.665306 0
M  V30 26 H -0.750994 -2.806250 1.098419 0
M  V30 27 H -2.242130 -2.920068 0.139431 0
M  V30 28 H -2.268289 -3.402480 1.832195 0
M  V30 29 H -3.461056 0.070816 0.786998 0
M  V30 30 H -3.102646 -1.304850 -1.129211 0
M  V30 31 H -2.323137 0.269083 -1.355548 0
M  V30 32 H -1.280974 -2.667431 -3.039028 0
M  V30 33 H -0.727041 -0.999791 -3.525517 0
M  V30 34 H -1.929624 1.803634 0.470165 0
M  V30 35 H 0.473604 2.437629 0.098592 0
M  V30 36 H 4.611004 -0.214744 1.530880 0
M  V30 37 H 5.167835 1.408880 1.503019 0
M  V30 38 H 1.388981 -0.592576 3.929333 0
M  V30 END ATOM
M  V30 BEGIN BOND
M  V30 1 1 1 2
M  V30 2 1 2 3
M  V30 3 1 3 4
M  V30 4 1 4 5
M  V30 5 1 5 6
M  V30 6 1 6 7
M  V30 7 1 7 8
M  V30 8 1 7 9
M  V30 9 1 7 10
M  V30 10 1 3 11
M  V30 11 1 11 12
M  V30 12 2 12 13
M  V30 13 1 13 14
M  V30 14 1 14 15
M  V30 15 2 14 16
M  V30 16 1 16 17
M  V30 17 1 17 18
M  V30 18 2 17 19
M  V30 19 2 17 20
M  V30 20 1 16 21
M  V30 21 2 21 22
M  V30 22 1 22 23
M  V30 23 2 23 24
M  V30 24 2 23 25
M  V30 25 1 23 2
M  V30 26 1 22 12
M  V30 27 1 1 26
M  V30 28 1 1 27
M  V30 29 1 1 28
M  V30 30 1 3 29
M  V30 31 1 4 30
M  V30 32 1 4 31
M  V30 33 1 6 32
M  V30 34 1 6 33
M  V30 35 1 11 34
M  V30 36 1 13 35
M  V30 37 1 18 36
M  V30 38 1 18 37
M  V30 39 1 21 38
M  V30 END BOND
M  V30 END CTAB
M  END
>  <Dataset>  (781) 
OralDrugs

>  <Ligand_Instance>  (781) 
nan

>  <PDB_ID>  (781) 
nan

>  <Standardized_SMILES>  (781) 
CN1C(CSCC(F)(F)F)Nc2cc(Cl)c(S(N)(=O)=O)cc2S1(=O)=O

>  <Name>  (781) 
Polythiazide

>  <Pocket>  (781) 
nan

>  <ATP_Site>  (781) 
nan

>  <Peripheral>  (781) 
nan

>  <Num_H_Atoms_ProtBoundConf>  (781) 
nan

>  <Num_Resolved_Atoms>  (781) 
nan

>  <Num_Not_Resolved_Atoms>  (781) 
nan

$$$$
CHEMBL43452
     RDKit          3D

  0  0  0  0  0  0  0  0  0  0999 V3000
M  V30 BEGIN CTAB
M  V30 COUNTS 31 33 0 0 0
M  V30 BEGIN ATOM
M  V30 1 N 2.003463 -1.412733 3.694780 0
M  V30 2 C 1.538983 -2.394830 2.774319 0
M  V30 3 C 1.723186 -3.748513 2.970187 0
M  V30 4 C 1.311189 -4.752712 2.140780 0
M  V30 5 C 0.639689 -4.332330 0.988615 0
M  V30 6 C 0.430146 -2.976133 0.747981 0
M  V30 7 C 0.873137 -2.006768 1.629063 0
M  V30 8 C 0.478401 -0.737848 1.050892 0
M  V30 9 O 0.748884 0.342364 1.636276 0
M  V30 10 N -0.208438 -0.927759 -0.187792 0
M  V30 11 C -0.702134 0.226162 -0.952967 0
M  V30 12 C -1.737263 0.957173 -0.158072 0
M  V30 13 C -1.884295 2.409987 -0.543797 0
M  V30 14 C -0.609715 3.115129 -0.270026 0
M  V30 15 O -0.271851 4.177001 0.353052 0
M  V30 16 N 0.537962 2.461568 -0.834212 0
M  V30 17 C 0.434053 1.127215 -1.317430 0
M  V30 18 O 1.294473 0.619353 -2.084509 0
M  V30 19 C -0.241444 -2.346595 -0.384098 0
M  V30 20 O -0.790904 -2.816425 -1.405866 0
M  V30 21 H 2.880053 -1.385953 4.260131 0
M  V30 22 H 1.403649 -0.563312 3.864595 0
M  V30 23 H 2.250226 -4.066906 3.875585 0
M  V30 24 H 1.498146 -5.782176 2.372950 0
M  V30 25 H 0.284521 -5.083419 0.284745 0
M  V30 26 H -1.187543 -0.208124 -1.857477 0
M  V30 27 H -1.438391 0.928930 0.911310 0
M  V30 28 H -2.721539 0.433255 -0.244789 0
M  V30 29 H -2.648501 2.833511 0.132843 0
M  V30 30 H -2.241621 2.525326 -1.585537 0
M  V30 31 H 1.508112 2.861252 -0.946067 0
M  V30 END ATOM
M  V30 BEGIN BOND
M  V30 1 1 1 2
M  V30 2 2 2 3
M  V30 3 1 3 4
M  V30 4 2 4 5
M  V30 5 1 5 6
M  V30 6 2 6 7
M  V30 7 1 7 8
M  V30 8 2 8 9
M  V30 9 1 8 10
M  V30 10 1 10 11
M  V30 11 1 11 12
M  V30 12 1 12 13
M  V30 13 1 13 14
M  V30 14 2 14 15
M  V30 15 1 14 16
M  V30 16 1 16 17
M  V30 17 2 17 18
M  V30 18 1 10 19
M  V30 19 2 19 20
M  V30 20 1 7 2
M  V30 21 1 17 11
M  V30 22 1 19 6
M  V30 23 1 1 21
M  V30 24 1 1 22
M  V30 25 1 3 23
M  V30 26 1 4 24
M  V30 27 1 5 25
M  V30 28 1 11 26
M  V30 29 1 12 27
M  V30 30 1 12 28
M  V30 31 1 13 29
M  V30 32 1 13 30
M  V30 33 1 16 31
M  V30 END BOND
M  V30 END CTAB
M  END
>  <Dataset>  (782) 
OralDrugs

>  <Ligand_Instance>  (782) 
nan

>  <PDB_ID>  (782) 
nan

>  <Standardized_SMILES>  (782) 
Nc1cccc2c1C(=O)N(C1CCC(=O)NC1=O)C2=O

>  <Name>  (782) 
Pomalidomide

>  <Pocket>  (782) 
nan

>  <ATP_Site>  (782) 
nan

>  <Peripheral>  (782) 
nan

>  <Num_H_Atoms_ProtBoundConf>  (782) 
nan

>  <Num_Resolved_Atoms>  (782) 
nan

>  <Num_Not_Resolved_Atoms>  (782) 
nan

$$$$
CHEMBL1171837
     RDKit          3D

  0  0  0  0  0  0  0  0  0  0999 V3000
M  V30 BEGIN CTAB
M  V30 COUNTS 66 70 0 0 0
M  V30 BEGIN ATOM
M  V30 1 C 4.824860 -2.637244 5.689628 0
M  V30 2 C 3.821307 -2.722073 4.597821 0
M  V30 3 C 3.811123 -3.820199 3.762747 0
M  V30 4 C 2.849862 -3.859842 2.748109 0
M  V30 5 C 1.918282 -2.869153 2.537296 0
M  V30 6 C 0.958523 -2.988652 1.459554 0
M  V30 7 O 1.090274 -4.016434 0.771610 0
M  V30 8 N -0.056317 -2.065341 1.160920 0
M  V30 9 C -1.017770 -2.124834 0.127437 0
M  V30 10 C -1.159050 -3.090072 -0.826635 0
M  V30 11 C -2.156519 -3.001076 -1.772471 0
M  V30 12 C -3.094863 -1.953855 -1.853824 0
M  V30 13 C -4.000202 -2.095998 -2.984972 0
M  V30 14 N -3.668496 -1.572187 -4.236039 0
M  V30 15 C -3.457184 -0.237474 -4.482228 0
M  V30 16 C -3.193884 0.181978 -5.896989 0
M  V30 17 N -2.513011 -0.823269 -6.678307 0
M  V30 18 C -2.411188 -0.373740 -8.042099 0
M  V30 19 C -3.348408 -2.027930 -6.571304 0
M  V30 20 C -3.127640 -2.526854 -5.168343 0
M  V30 21 C -2.926134 -0.998642 -0.877325 0
M  V30 22 C -3.887934 0.111857 -0.862701 0
M  V30 23 F -5.219458 -0.344885 -0.800151 0
M  V30 24 F -3.755802 0.679443 0.448925 0
M  V30 25 F -3.703498 1.133391 -1.710509 0
M  V30 26 C -1.925458 -1.099080 0.061237 0
M  V30 27 C 2.005439 -1.818331 3.415254 0
M  V30 28 C 2.915892 -1.691422 4.443571 0
M  V30 29 C 2.904488 -0.525083 5.304103 0
M  V30 30 C 2.900799 0.457588 6.004553 0
M  V30 31 C 2.918414 1.623598 6.848254 0
M  V30 32 C 2.729951 1.743725 8.209330 0
M  V30 33 N 2.844874 3.064919 8.532046 0
M  V30 34 C 3.100666 3.767037 7.399753 0
M  V30 35 C 3.297965 5.125320 7.205227 0
M  V30 36 C 3.548019 5.568140 5.901029 0
M  V30 37 C 3.582154 4.619631 4.890108 0
M  V30 38 N 3.379946 3.316690 5.162569 0
M  V30 39 N 3.142755 2.883425 6.388537 0
M  V30 40 H 5.423679 -1.716961 5.682626 0
M  V30 41 H 4.242699 -2.671313 6.652277 0
M  V30 42 H 5.516534 -3.522078 5.643007 0
M  V30 43 H 4.534232 -4.612169 3.911194 0
M  V30 44 H 2.901460 -4.740624 2.139276 0
M  V30 45 H -0.032227 -1.265192 1.827625 0
M  V30 46 H -0.474122 -3.920319 -0.824713 0
M  V30 47 H -2.158324 -3.832169 -2.474623 0
M  V30 48 H -5.030974 -1.670936 -2.723340 0
M  V30 49 H -4.220670 -3.202446 -3.119212 0
M  V30 50 H -2.588027 0.123527 -3.871900 0
M  V30 51 H -4.334855 0.353294 -4.151505 0
M  V30 52 H -4.127358 0.446064 -6.433619 0
M  V30 53 H -2.556942 1.095164 -5.909693 0
M  V30 54 H -2.870262 -1.130404 -8.736178 0
M  V30 55 H -2.799821 0.644495 -8.214132 0
M  V30 56 H -1.331682 -0.356584 -8.307135 0
M  V30 57 H -4.415106 -1.708427 -6.646407 0
M  V30 58 H -3.075202 -2.775754 -7.340195 0
M  V30 59 H -2.013541 -2.652743 -5.055611 0
M  V30 60 H -3.663020 -3.488326 -5.007366 0
M  V30 61 H -1.875343 -0.283047 0.794100 0
M  V30 62 H 1.308500 -0.998087 3.317434 0
M  V30 63 H 2.527444 0.897891 8.863970 0
M  V30 64 H 3.262428 5.844332 8.022142 0
M  V30 65 H 3.707546 6.632476 5.714596 0
M  V30 66 H 3.776959 4.942963 3.858895 0
M  V30 END ATOM
M  V30 BEGIN BOND
M  V30 1 1 1 2
M  V30 2 2 2 3
M  V30 3 1 3 4
M  V30 4 2 4 5
M  V30 5 1 5 6
M  V30 6 2 6 7
M  V30 7 1 6 8
M  V30 8 1 8 9
M  V30 9 2 9 10
M  V30 10 1 10 11
M  V30 11 2 11 12
M  V30 12 1 12 13
M  V30 13 1 13 14
M  V30 14 1 14 15
M  V30 15 1 15 16
M  V30 16 1 16 17
M  V30 17 1 17 18
M  V30 18 1 17 19
M  V30 19 1 19 20
M  V30 20 1 12 21
M  V30 21 1 21 22
M  V30 22 1 22 23
M  V30 23 1 22 24
M  V30 24 1 22 25
M  V30 25 2 21 26
M  V30 26 1 5 27
M  V30 27 2 27 28
M  V30 28 1 28 29
M  V30 29 3 29 30
M  V30 30 1 30 31
M  V30 31 2 31 32
M  V30 32 1 32 33
M  V30 33 2 33 34
M  V30 34 1 34 35
M  V30 35 2 35 36
M  V30 36 1 36 37
M  V30 37 2 37 38
M  V30 38 1 38 39
M  V30 39 1 28 2
M  V30 40 1 39 31
M  V30 41 1 26 9
M  V30 42 1 39 34
M  V30 43 1 20 14
M  V30 44 1 1 40
M  V30 45 1 1 41
M  V30 46 1 1 42
M  V30 47 1 3 43
M  V30 48 1 4 44
M  V30 49 1 8 45
M  V30 50 1 10 46
M  V30 51 1 11 47
M  V30 52 1 13 48
M  V30 53 1 13 49
M  V30 54 1 15 50
M  V30 55 1 15 51
M  V30 56 1 16 52
M  V30 57 1 16 53
M  V30 58 1 18 54
M  V30 59 1 18 55
M  V30 60 1 18 56
M  V30 61 1 19 57
M  V30 62 1 19 58
M  V30 63 1 20 59
M  V30 64 1 20 60
M  V30 65 1 26 61
M  V30 66 1 27 62
M  V30 67 1 32 63
M  V30 68 1 35 64
M  V30 69 1 36 65
M  V30 70 1 37 66
M  V30 END BOND
M  V30 END CTAB
M  END
>  <Dataset>  (783) 
OralDrugs

>  <Ligand_Instance>  (783) 
nan

>  <PDB_ID>  (783) 
nan

>  <Standardized_SMILES>  (783) 
Cc1ccc(C(=O)Nc2ccc(CN3CCN(C)CC3)c(C(F)(F)F)c2)cc1C#Cc1cnc2cccnn12

>  <Name>  (783) 
Ponatinib

>  <Pocket>  (783) 
nan

>  <ATP_Site>  (783) 
nan

>  <Peripheral>  (783) 
nan

>  <Num_H_Atoms_ProtBoundConf>  (783) 
nan

>  <Num_Resolved_Atoms>  (783) 
nan

>  <Num_Not_Resolved_Atoms>  (783) 
nan

$$$$
CHEMBL1096146
     RDKit          3D

  0  0  0  0  0  0  0  0  0  0999 V3000
M  V30 BEGIN CTAB
M  V30 COUNTS 56 58 0 0 0
M  V30 BEGIN ATOM
M  V30 1 C 1.661541 -2.541232 5.783778 0
M  V30 2 C 1.893046 -1.489111 4.716436 0
M  V30 3 C 2.319728 -2.126919 3.408511 0
M  V30 4 N 1.243350 -3.014440 3.012021 0
M  V30 5 C 0.664394 -2.853917 1.882721 0
M  V30 6 S 0.963057 -1.625345 0.582355 0
M  V30 7 C -0.738169 -1.676288 -0.052467 0
M  V30 8 C -1.487057 -0.788709 -0.691319 0
M  V30 9 C -0.947673 0.531682 -1.004899 0
M  V30 10 C -1.352813 1.006389 -2.231644 0
M  V30 11 C -0.895101 2.243376 -2.611711 0
M  V30 12 C -0.066719 3.049987 -1.871874 0
M  V30 13 O 0.533114 4.238622 -1.942459 0
M  V30 14 C 0.646157 5.309047 -2.765630 0
M  V30 15 C -0.551506 6.136736 -3.076859 0 CFG=2
M  V30 16 O -1.093843 6.671686 -1.903738 0
M  V30 17 C -1.622145 5.490409 -3.903191 0
M  V30 18 O -1.041259 4.953885 -5.042725 0
M  V30 19 C 0.327327 2.529676 -0.621808 0
M  V30 20 Cl 1.368393 3.229875 0.618644 0
M  V30 21 C -0.109709 1.268157 -0.179081 0
M  V30 22 C -1.159870 -3.034460 0.325149 0
M  V30 23 O -2.147317 -3.610316 -0.249893 0
M  V30 24 N -0.409017 -3.632519 1.343119 0
M  V30 25 C -0.654493 -4.957726 1.866089 0
M  V30 26 C -1.511588 -5.160058 2.928582 0
M  V30 27 C -1.764043 -6.416888 3.449046 0
M  V30 28 C -1.119495 -7.493780 2.863342 0
M  V30 29 C -0.248384 -7.341844 1.792643 0
M  V30 30 C -0.039889 -6.062397 1.320898 0
M  V30 31 C 0.902897 -5.934968 0.168244 0
M  V30 32 H 0.571220 -2.624978 5.966541 0
M  V30 33 H 2.000764 -3.541783 5.462225 0
M  V30 34 H 2.162635 -2.305756 6.732169 0
M  V30 35 H 2.704493 -0.823720 5.075517 0
M  V30 36 H 0.978064 -0.885021 4.566645 0
M  V30 37 H 2.454489 -1.345269 2.654089 0
M  V30 38 H 3.249212 -2.702829 3.543315 0
M  V30 39 H -2.493551 -1.077815 -0.964836 0
M  V30 40 H -1.992248 0.502109 -2.918529 0
M  V30 41 H -1.136877 2.683435 -3.543845 0
M  V30 42 H 1.444590 6.042237 -2.435474 0
M  V30 43 H 1.059304 4.979931 -3.783396 0
M  V30 44 H -0.244551 7.053648 -3.676967 0
M  V30 45 H -1.512637 7.534413 -2.075104 0
M  V30 46 H -2.200860 4.729105 -3.385010 0
M  V30 47 H -2.304113 6.338109 -4.234914 0
M  V30 48 H -1.626741 4.254205 -5.466590 0
M  V30 49 H 0.106158 0.751728 0.742227 0
M  V30 50 H -2.007219 -4.280225 3.370641 0
M  V30 51 H -2.449650 -6.522441 4.289243 0
M  V30 52 H -1.296288 -8.507079 3.250653 0
M  V30 53 H 0.245542 -8.188413 1.349988 0
M  V30 54 H 1.229655 -4.886839 0.091253 0
M  V30 55 H 0.349931 -6.289792 -0.718731 0
M  V30 56 H 1.769270 -6.591434 0.319453 0
M  V30 END ATOM
M  V30 BEGIN BOND
M  V30 1 1 1 2
M  V30 2 1 2 3
M  V30 3 1 3 4
M  V30 4 2 4 5
M  V30 5 1 5 6
M  V30 6 1 6 7
M  V30 7 2 7 8
M  V30 8 1 8 9
M  V30 9 2 9 10
M  V30 10 1 10 11
M  V30 11 2 11 12
M  V30 12 1 12 13
M  V30 13 1 13 14
M  V30 14 1 14 15
M  V30 15 1 15 16
M  V30 16 1 15 17
M  V30 17 1 17 18
M  V30 18 1 12 19
M  V30 19 1 19 20
M  V30 20 2 19 21
M  V30 21 1 7 22
M  V30 22 2 22 23
M  V30 23 1 22 24
M  V30 24 1 24 25
M  V30 25 2 25 26
M  V30 26 1 26 27
M  V30 27 2 27 28
M  V30 28 1 28 29
M  V30 29 2 29 30
M  V30 30 1 30 31
M  V30 31 1 24 5
M  V30 32 1 30 25
M  V30 33 1 21 9
M  V30 34 1 1 32
M  V30 35 1 1 33
M  V30 36 1 1 34
M  V30 37 1 2 35
M  V30 38 1 2 36
M  V30 39 1 3 37
M  V30 40 1 3 38
M  V30 41 1 8 39
M  V30 42 1 10 40
M  V30 43 1 11 41
M  V30 44 1 14 42
M  V30 45 1 14 43
M  V30 46 1 15 44 CFG=3
M  V30 47 1 16 45
M  V30 48 1 17 46
M  V30 49 1 17 47
M  V30 50 1 18 48
M  V30 51 1 21 49
M  V30 52 1 26 50
M  V30 53 1 27 51
M  V30 54 1 28 52
M  V30 55 1 29 53
M  V30 56 1 31 54
M  V30 57 1 31 55
M  V30 58 1 31 56
M  V30 END BOND
M  V30 END CTAB
M  END
>  <Dataset>  (784) 
OralDrugs

>  <Ligand_Instance>  (784) 
nan

>  <PDB_ID>  (784) 
nan

>  <Standardized_SMILES>  (784) 
CCC/N=C1\S/C(=C\c2ccc(OC[C@H](O)CO)c(Cl)c2)C(=O)N1c1ccccc1C

>  <Name>  (784) 
Ponesimod

>  <Pocket>  (784) 
nan

>  <ATP_Site>  (784) 
nan

>  <Peripheral>  (784) 
nan

>  <Num_H_Atoms_ProtBoundConf>  (784) 
nan

>  <Num_Resolved_Atoms>  (784) 
nan

>  <Num_Not_Resolved_Atoms>  (784) 
nan

$$$$
CHEMBL1397
     RDKit          3D

  0  0  0  0  0  0  0  0  0  0999 V3000
M  V30 BEGIN CTAB
M  V30 COUNTS 93 99 0 0 0
M  V30 BEGIN ATOM
M  V30 1 C 2.757301 -7.450405 -7.320042 0
M  V30 2 C 1.572174 -6.555419 -7.236183 0
M  V30 3 C 1.787586 -5.193665 -6.719861 0 CFG=1
M  V30 4 C 2.715782 -4.289140 -7.431075 0 CFG=2
M  V30 5 C 4.139271 -4.780410 -7.501933 0
M  V30 6 O 2.744116 -3.002524 -6.879290 0
M  V30 7 N 0.466275 -4.553763 -6.576406 0
M  V30 8 N -0.278085 -4.184229 -7.604597 0
M  V30 9 C -1.413236 -3.631144 -7.137729 0
M  V30 10 N -1.330799 -3.678329 -5.796612 0
M  V30 11 C -2.235985 -3.232185 -4.793849 0
M  V30 12 C -2.779525 -1.974212 -4.915592 0
M  V30 13 C -3.655330 -1.493876 -3.964884 0
M  V30 14 C -4.035567 -2.230404 -2.850223 0
M  V30 15 N -4.944020 -1.731024 -1.849585 0
M  V30 16 C -5.150321 -2.665129 -0.742720 0
M  V30 17 C -5.977200 -1.963417 0.306249 0
M  V30 18 N -5.468446 -0.609048 0.378294 0
M  V30 19 C -4.607911 -0.096517 1.387111 0
M  V30 20 C -4.383786 -0.774774 2.562183 0
M  V30 21 C -3.532068 -0.310629 3.577177 0
M  V30 22 C -2.884910 0.890127 3.385111 0
M  V30 23 O -2.007117 1.466719 4.321164 0
M  V30 24 C -1.369351 2.699564 4.058728 0
M  V30 25 C -0.477258 3.186949 5.152311 0 CFG=2
M  V30 26 C 0.124241 4.504828 4.711329 0
M  V30 27 O 1.395475 4.238724 4.283018 0
M  V30 28 C 1.901790 3.128386 4.888687 0 CFG=1
M  V30 29 C 2.656977 2.330457 3.821225 0
M  V30 30 N 3.728842 3.098806 3.243125 0
M  V30 31 C 5.000410 3.118997 3.731794 0
M  V30 32 N 5.745364 3.925855 2.964841 0
M  V30 33 C 4.964627 4.424440 1.987988 0
M  V30 34 N 3.755636 3.896194 2.198081 0
M  V30 35 C 2.861930 3.505371 5.961604 0
M  V30 36 C 3.106660 4.862116 6.203626 0
M  V30 37 C 4.011029 5.192162 7.222082 0
M  V30 38 C 4.653629 4.237187 7.976398 0
M  V30 39 F 5.532572 4.554547 8.966942 0
M  V30 40 C 4.399666 2.910557 7.722460 0
M  V30 41 C 3.501334 2.545009 6.712808 0
M  V30 42 F 3.285721 1.204500 6.504055 0
M  V30 43 C 0.736134 2.359165 5.396447 0
M  V30 44 C -3.111146 1.571018 2.202085 0
M  V30 45 C -3.959276 1.103362 1.198173 0
M  V30 46 C -5.961392 0.194332 -0.735037 0
M  V30 47 C -5.526399 -0.392549 -2.060351 0
M  V30 48 C -3.458852 -3.484663 -2.782336 0
M  V30 49 C -2.579224 -4.008250 -3.707232 0
M  V30 50 C -0.167857 -4.249622 -5.426584 0
M  V30 51 O 0.278654 -4.473841 -4.249337 0
M  V30 52 H 2.344477 -8.483694 -7.575170 0
M  V30 53 H 3.257302 -7.568876 -6.319956 0
M  V30 54 H 3.427595 -7.201694 -8.139159 0
M  V30 55 H 0.869729 -7.061927 -6.495000 0
M  V30 56 H 1.017418 -6.549103 -8.201567 0
M  V30 57 H 2.201044 -5.284923 -5.660409 0
M  V30 58 H 2.415550 -4.131536 -8.507945 0
M  V30 59 H 4.447357 -5.118248 -8.508257 0
M  V30 60 H 4.388699 -5.540293 -6.731762 0
M  V30 61 H 4.863778 -3.934132 -7.259640 0
M  V30 62 H 3.538349 -2.830224 -6.350701 0
M  V30 63 H -2.236530 -3.224520 -7.696526 0
M  V30 64 H -2.503662 -1.357664 -5.784000 0
M  V30 65 H -4.034702 -0.500937 -4.137551 0
M  V30 66 H -4.126193 -2.864014 -0.317609 0
M  V30 67 H -5.609656 -3.621047 -1.068480 0
M  V30 68 H -5.932442 -2.489143 1.286864 0
M  V30 69 H -7.043466 -1.898396 -0.049525 0
M  V30 70 H -4.848834 -1.722368 2.795668 0
M  V30 71 H -3.357470 -0.838000 4.490366 0
M  V30 72 H -2.116822 3.485520 3.835461 0
M  V30 73 H -0.770623 2.534031 3.129495 0
M  V30 74 H -1.061201 3.344842 6.093971 0
M  V30 75 H 0.060951 5.306624 5.446413 0
M  V30 76 H -0.430787 4.898447 3.806169 0
M  V30 77 H 1.955524 2.058535 2.992776 0
M  V30 78 H 3.078758 1.387197 4.223777 0
M  V30 79 H 5.461413 2.624213 4.577294 0
M  V30 80 H 5.063149 5.092169 1.143521 0
M  V30 81 H 2.615897 5.647520 5.626580 0
M  V30 82 H 4.229642 6.221137 7.444927 0
M  V30 83 H 4.921167 2.156068 8.333959 0
M  V30 84 H 0.835959 2.160759 6.490311 0
M  V30 85 H 0.677753 1.391266 4.823880 0
M  V30 86 H -2.597974 2.513510 2.061328 0
M  V30 87 H -4.045285 1.731058 0.323968 0
M  V30 88 H -5.685799 1.241909 -0.706693 0
M  V30 89 H -7.086030 0.082527 -0.690180 0
M  V30 90 H -4.733266 0.261159 -2.440518 0
M  V30 91 H -6.386151 -0.422601 -2.724389 0
M  V30 92 H -3.712704 -4.118786 -1.942844 0
M  V30 93 H -2.161618 -5.015716 -3.582664 0
M  V30 END ATOM
M  V30 BEGIN BOND
M  V30 1 1 1 2
M  V30 2 1 2 3
M  V30 3 1 3 4
M  V30 4 1 4 5
M  V30 5 1 4 6
M  V30 6 1 3 7
M  V30 7 1 7 8
M  V30 8 2 8 9
M  V30 9 1 9 10
M  V30 10 1 10 11
M  V30 11 2 11 12
M  V30 12 1 12 13
M  V30 13 2 13 14
M  V30 14 1 14 15
M  V30 15 1 15 16
M  V30 16 1 16 17
M  V30 17 1 17 18
M  V30 18 1 18 19
M  V30 19 2 19 20
M  V30 20 1 20 21
M  V30 21 2 21 22
M  V30 22 1 22 23
M  V30 23 1 23 24
M  V30 24 1 24 25
M  V30 25 1 25 26
M  V30 26 1 26 27
M  V30 27 1 27 28
M  V30 28 1 28 29 CFG=3
M  V30 29 1 29 30
M  V30 30 1 30 31
M  V30 31 2 31 32
M  V30 32 1 32 33
M  V30 33 2 33 34
M  V30 34 1 28 35
M  V30 35 2 35 36
M  V30 36 1 36 37
M  V30 37 2 37 38
M  V30 38 1 38 39
M  V30 39 1 38 40
M  V30 40 2 40 41
M  V30 41 1 41 42
M  V30 42 1 28 43
M  V30 43 1 22 44
M  V30 44 2 44 45
M  V30 45 1 18 46
M  V30 46 1 46 47
M  V30 47 1 14 48
M  V30 48 2 48 49
M  V30 49 1 10 50
M  V30 50 2 50 51
M  V30 51 1 50 7
M  V30 52 1 49 11
M  V30 53 1 47 15
M  V30 54 1 45 19
M  V30 55 1 43 25
M  V30 56 1 34 30
M  V30 57 1 41 35
M  V30 58 1 1 52
M  V30 59 1 1 53
M  V30 60 1 1 54
M  V30 61 1 2 55
M  V30 62 1 2 56
M  V30 63 1 3 57 CFG=1
M  V30 64 1 4 58 CFG=3
M  V30 65 1 5 59
M  V30 66 1 5 60
M  V30 67 1 5 61
M  V30 68 1 6 62
M  V30 69 1 9 63
M  V30 70 1 12 64
M  V30 71 1 13 65
M  V30 72 1 16 66
M  V30 73 1 16 67
M  V30 74 1 17 68
M  V30 75 1 17 69
M  V30 76 1 20 70
M  V30 77 1 21 71
M  V30 78 1 24 72
M  V30 79 1 24 73
M  V30 80 1 25 74 CFG=1
M  V30 81 1 26 75
M  V30 82 1 26 76
M  V30 83 1 29 77
M  V30 84 1 29 78
M  V30 85 1 31 79
M  V30 86 1 33 80
M  V30 87 1 36 81
M  V30 88 1 37 82
M  V30 89 1 40 83
M  V30 90 1 43 84
M  V30 91 1 43 85
M  V30 92 1 44 86
M  V30 93 1 45 87
M  V30 94 1 46 88
M  V30 95 1 46 89
M  V30 96 1 47 90
M  V30 97 1 47 91
M  V30 98 1 48 92
M  V30 99 1 49 93
M  V30 END BOND
M  V30 END CTAB
M  END
>  <Dataset>  (785) 
OralDrugs

>  <Ligand_Instance>  (785) 
nan

>  <PDB_ID>  (785) 
nan

>  <Standardized_SMILES>  (785) 
CC[C@@H]([C@H](C)O)n1ncn(-c2ccc(N3CCN(c4ccc(OC[C@@H]5CO[C@@](Cn6cncn6)(c6ccc(F)cc6F)C5)cc4)CC3)cc2)c1=O

>  <Name>  (785) 
Posaconazole

>  <Pocket>  (785) 
nan

>  <ATP_Site>  (785) 
nan

>  <Peripheral>  (785) 
nan

>  <Num_H_Atoms_ProtBoundConf>  (785) 
nan

>  <Num_Resolved_Atoms>  (785) 
nan

>  <Num_Not_Resolved_Atoms>  (785) 
nan

$$$$
CHEMBL1420
     RDKit          3D

  0  0  0  0  0  0  0  0  0  0999 V3000
M  V30 BEGIN CTAB
M  V30 COUNTS 19 19 0 0 0
M  V30 BEGIN ATOM
M  V30 1 C -0.625770 1.297840 0.472304 0
M  V30 2 N 0.516081 0.755647 1.178201 0 CHG=1 VAL=4
M  V30 3 C 1.016327 1.460636 2.228068 0
M  V30 4 C 2.091162 0.926120 2.873587 0
M  V30 5 C 2.677606 -0.267410 2.517112 0
M  V30 6 C 2.149920 -0.971895 1.440435 0
M  V30 7 C 1.051521 -0.408268 0.794437 0
M  V30 8 C 0.498627 -1.158760 -0.343378 0
M  V30 9 N 0.331389 -1.045932 -1.591519 0
M  V30 10 O -0.231584 -1.921932 -2.452578 0
M  V30 11 H -0.238269 2.131419 -0.173724 0
M  V30 12 H -1.320823 1.708459 1.222579 0
M  V30 13 H -1.080196 0.528068 -0.183385 0
M  V30 14 H 0.595563 2.391464 2.542338 0
M  V30 15 H 2.547425 1.434028 3.724999 0
M  V30 16 H 3.529058 -0.653003 3.058203 0
M  V30 17 H 2.570662 -1.919766 1.112715 0
M  V30 18 H 0.126315 -2.098784 0.046643 0
M  V30 19 H -0.406517 -2.896302 -2.336107 0
M  V30 END ATOM
M  V30 BEGIN BOND
M  V30 1 1 1 2
M  V30 2 2 2 3
M  V30 3 1 3 4
M  V30 4 2 4 5
M  V30 5 1 5 6
M  V30 6 2 6 7
M  V30 7 1 7 8
M  V30 8 2 8 9 CFG=2
M  V30 9 1 9 10
M  V30 10 1 7 2
M  V30 11 1 1 11
M  V30 12 1 1 12
M  V30 13 1 1 13
M  V30 14 1 3 14
M  V30 15 1 4 15
M  V30 16 1 5 16
M  V30 17 1 6 17
M  V30 18 1 8 18
M  V30 19 1 10 19
M  V30 END BOND
M  V30 END CTAB
M  END
>  <Dataset>  (786) 
OralDrugs

>  <Ligand_Instance>  (786) 
nan

>  <PDB_ID>  (786) 
nan

>  <Standardized_SMILES>  (786) 
C[n+]1ccccc1C=NO

>  <Name>  (786) 
Pralidoxime

>  <Pocket>  (786) 
nan

>  <ATP_Site>  (786) 
nan

>  <Peripheral>  (786) 
nan

>  <Num_H_Atoms_ProtBoundConf>  (786) 
nan

>  <Num_Resolved_Atoms>  (786) 
nan

>  <Num_Not_Resolved_Atoms>  (786) 
nan

$$$$
CHEMBL748
     RDKit          3D

  0  0  0  0  0  0  0  0  0  0999 V3000
M  V30 BEGIN CTAB
M  V30 COUNTS 19 19 0 0 0
M  V30 BEGIN ATOM
M  V30 1 C -0.583466 1.249416 0.440071 0
M  V30 2 N 0.550994 0.724352 1.169900 0 CHG=1 VAL=4
M  V30 3 C 0.978829 1.441843 2.220343 0
M  V30 4 C 2.055289 0.950759 2.918891 0
M  V30 5 C 2.672218 -0.232230 2.555848 0
M  V30 6 C 2.202845 -0.947950 1.463904 0
M  V30 7 C 1.122757 -0.431961 0.782688 0
M  V30 8 C 0.619422 -1.179459 -0.371326 0
M  V30 9 N 0.420303 -1.075999 -1.621464 0
M  V30 10 O -0.093579 -2.010309 -2.459385 0
M  V30 11 H -0.288669 2.120968 -0.172540 0
M  V30 12 H -1.317354 1.621793 1.195274 0
M  V30 13 H -1.107192 0.513079 -0.168735 0
M  V30 14 H 0.502504 2.377919 2.519861 0
M  V30 15 H 2.478023 1.451430 3.780452 0
M  V30 16 H 3.525577 -0.657438 3.079227 0
M  V30 17 H 2.649934 -1.888334 1.130481 0
M  V30 18 H 0.310270 -2.168343 -0.026865 0
M  V30 19 H -0.900206 -2.567910 -2.305694 0
M  V30 END ATOM
M  V30 BEGIN BOND
M  V30 1 1 1 2
M  V30 2 2 2 3
M  V30 3 1 3 4
M  V30 4 2 4 5
M  V30 5 1 5 6
M  V30 6 2 6 7
M  V30 7 1 7 8
M  V30 8 2 8 9
M  V30 9 1 9 10
M  V30 10 1 7 2
M  V30 11 1 1 11
M  V30 12 1 1 12
M  V30 13 1 1 13
M  V30 14 1 3 14
M  V30 15 1 4 15
M  V30 16 1 5 16
M  V30 17 1 6 17
M  V30 18 1 8 18
M  V30 19 1 10 19
M  V30 END BOND
M  V30 END CTAB
M  END
>  <Dataset>  (787) 
OralDrugs

>  <Ligand_Instance>  (787) 
nan

>  <PDB_ID>  (787) 
nan

>  <Standardized_SMILES>  (787) 
C[n+]1ccccc1/C=N/O

>  <Name>  (787) 
Pralidoxime Chloride

>  <Pocket>  (787) 
nan

>  <ATP_Site>  (787) 
nan

>  <Peripheral>  (787) 
nan

>  <Num_H_Atoms_ProtBoundConf>  (787) 
nan

>  <Num_Resolved_Atoms>  (787) 
nan

>  <Num_Not_Resolved_Atoms>  (787) 
nan

$$$$
CHEMBL4582651
     RDKit          3D

  0  0  0  0  0  0  0  0  0  0999 V3000
M  V30 BEGIN CTAB
M  V30 COUNTS 71 75 0 0 0
M  V30 BEGIN ATOM
M  V30 1 C 0.490001 0.255728 2.747290 0
M  V30 2 O -0.340251 -0.814924 2.912916 0
M  V30 3 C -1.003472 -1.255111 1.779929 0 CFG=2
M  V30 4 C -1.963848 -0.284987 1.248691 0
M  V30 5 O -2.361379 -0.713261 0.109852 0
M  V30 6 N -2.518243 0.935490 1.676665 0
M  V30 7 C -3.473746 1.653505 0.851092 0 CFG=1
M  V30 8 C -4.804258 1.595871 1.580220 0
M  V30 9 C -3.030063 3.029381 0.557065 0
M  V30 10 C -3.099247 3.598281 -0.720946 0
M  V30 11 C -2.660240 4.896808 -0.923583 0
M  V30 12 C -2.153913 5.605590 0.170881 0
M  V30 13 N -1.717568 6.929631 -0.106118 0
M  V30 14 C -0.726326 7.478807 0.634072 0
M  V30 15 C -0.483482 8.772932 0.159402 0
M  V30 16 F 0.409997 9.712554 0.571843 0
M  V30 17 C -1.384216 8.952574 -0.894931 0
M  V30 18 N -2.082156 7.812448 -0.989842 0
M  V30 19 N -2.101251 5.029519 1.379387 0
M  V30 20 C -2.524048 3.768510 1.604424 0
M  V30 21 C -1.658970 -2.564568 2.186406 0
M  V30 22 C -0.777714 -3.741092 1.814985 0
M  V30 23 C -0.857617 -3.836541 0.302352 0 CFG=2
M  V30 24 C -0.139427 -5.059937 -0.173468 0
M  V30 25 N -0.765256 -6.224399 -0.488062 0
M  V30 26 C -0.070276 -7.292074 -0.914537 0
M  V30 27 C -0.774435 -8.559665 -1.250444 0
M  V30 28 C 1.308669 -7.145021 -1.016558 0
M  V30 29 C 1.975156 -5.967677 -0.702938 0
M  V30 30 N 3.384013 -5.846069 -0.820566 0
M  V30 31 C 3.984323 -4.593466 -0.507290 0
M  V30 32 C 4.028721 -3.782594 -1.652331 0
M  V30 33 C 4.623414 -2.572291 -1.281554 0
M  V30 34 C 4.942457 -1.329444 -2.041878 0
M  V30 35 N 4.913091 -2.686615 0.042615 0
M  V30 36 N 4.534375 -3.871417 0.479870 0
M  V30 37 N 1.182246 -4.962271 -0.285463 0
M  V30 38 C -0.327690 -2.573654 -0.277748 0
M  V30 39 C 0.051734 -1.571494 0.750653 0
M  V30 40 H 0.914106 0.483215 3.770470 0
M  V30 41 H 0.095920 1.173981 2.343207 0
M  V30 42 H 1.413478 -0.020211 2.158502 0
M  V30 43 H -2.181034 1.218322 2.610034 0
M  V30 44 H -3.641693 1.138316 -0.116235 0
M  V30 45 H -4.883203 0.555281 2.006345 0
M  V30 46 H -5.656090 1.740003 0.888455 0
M  V30 47 H -4.813817 2.267561 2.460067 0
M  V30 48 H -3.515062 2.940436 -1.482831 0
M  V30 49 H -2.762766 5.218634 -1.934478 0
M  V30 50 H -0.170837 7.048271 1.466532 0
M  V30 51 H -1.457155 9.864918 -1.487974 0
M  V30 52 H -2.445304 3.386559 2.611404 0
M  V30 53 H -1.948232 -2.572597 3.256421 0
M  V30 54 H -2.592421 -2.651732 1.599446 0
M  V30 55 H -1.142574 -4.684671 2.228278 0
M  V30 56 H 0.264991 -3.486042 2.067393 0
M  V30 57 H -1.925517 -3.992209 0.053679 0
M  V30 58 H -1.005550 -9.137059 -0.318744 0
M  V30 59 H -0.141406 -9.192203 -1.879589 0
M  V30 60 H -1.740036 -8.408160 -1.768860 0
M  V30 61 H 1.905376 -7.979534 -1.358281 0
M  V30 62 H 3.913105 -6.688302 -1.134421 0
M  V30 63 H 3.748594 -3.822565 -2.702658 0
M  V30 64 H 6.025185 -1.237650 -2.259208 0
M  V30 65 H 4.415953 -1.274643 -3.011437 0
M  V30 66 H 4.668284 -0.411657 -1.476653 0
M  V30 67 H 5.364704 -1.971869 0.654907 0
M  V30 68 H -0.992938 -2.176085 -1.085690 0
M  V30 69 H 0.623008 -2.830231 -0.831227 0
M  V30 70 H 0.237304 -0.601722 0.209739 0
M  V30 71 H 1.033797 -1.804841 1.220656 0
M  V30 END ATOM
M  V30 BEGIN BOND
M  V30 1 1 1 2
M  V30 2 1 3 2 CFG=1
M  V30 3 1 3 4
M  V30 4 2 4 5
M  V30 5 1 4 6
M  V30 6 1 6 7
M  V30 7 1 7 8
M  V30 8 1 7 9
M  V30 9 2 9 10
M  V30 10 1 10 11
M  V30 11 2 11 12
M  V30 12 1 12 13
M  V30 13 1 13 14
M  V30 14 2 14 15
M  V30 15 1 15 16
M  V30 16 1 15 17
M  V30 17 2 17 18
M  V30 18 1 12 19
M  V30 19 2 19 20
M  V30 20 1 3 21
M  V30 21 1 21 22
M  V30 22 1 22 23
M  V30 23 1 23 24
M  V30 24 2 24 25
M  V30 25 1 25 26
M  V30 26 1 26 27
M  V30 27 2 26 28
M  V30 28 1 28 29
M  V30 29 1 29 30
M  V30 30 1 30 31
M  V30 31 1 31 32
M  V30 32 2 32 33
M  V30 33 1 33 34
M  V30 34 1 33 35
M  V30 35 1 35 36
M  V30 36 2 29 37
M  V30 37 1 23 38
M  V30 38 1 38 39
M  V30 39 1 39 3
M  V30 40 1 20 9
M  V30 41 1 37 24
M  V30 42 1 18 13
M  V30 43 2 36 31
M  V30 44 1 1 40
M  V30 45 1 1 41
M  V30 46 1 1 42
M  V30 47 1 6 43
M  V30 48 1 7 44 CFG=3
M  V30 49 1 8 45
M  V30 50 1 8 46
M  V30 51 1 8 47
M  V30 52 1 10 48
M  V30 53 1 11 49
M  V30 54 1 14 50
M  V30 55 1 17 51
M  V30 56 1 20 52
M  V30 57 1 21 53
M  V30 58 1 21 54
M  V30 59 1 22 55
M  V30 60 1 22 56
M  V30 61 1 23 57 CFG=1
M  V30 62 1 27 58
M  V30 63 1 27 59
M  V30 64 1 27 60
M  V30 65 1 28 61
M  V30 66 1 30 62
M  V30 67 1 32 63
M  V30 68 1 34 64
M  V30 69 1 34 65
M  V30 70 1 34 66
M  V30 71 1 35 67
M  V30 72 1 38 68
M  V30 73 1 38 69
M  V30 74 1 39 70
M  V30 75 1 39 71
M  V30 END BOND
M  V30 END CTAB
M  END
>  <Dataset>  (788) 
OralDrugs

>  <Ligand_Instance>  (788) 
nan

>  <PDB_ID>  (788) 
nan

>  <Standardized_SMILES>  (788) 
CO[C@]1(C(=O)N[C@@H](C)c2ccc(-n3cc(F)cn3)nc2)CC[C@H](c2nc(C)cc(Nc3cc(C)[nH]n3)n2)CC1

>  <Name>  (788) 
Pralsetinib

>  <Pocket>  (788) 
nan

>  <ATP_Site>  (788) 
nan

>  <Peripheral>  (788) 
nan

>  <Num_H_Atoms_ProtBoundConf>  (788) 
nan

>  <Num_Resolved_Atoms>  (788) 
nan

>  <Num_Not_Resolved_Atoms>  (788) 
nan

$$$$
CHEMBL301265
     RDKit          3D

  0  0  0  0  0  0  0  0  0  0999 V3000
M  V30 BEGIN CTAB
M  V30 COUNTS 31 32 0 0 0
M  V30 BEGIN ATOM
M  V30 1 C -0.981796 -0.614034 4.375476 0
M  V30 2 C -0.881721 -1.785449 3.453799 0
M  V30 3 C -1.887868 -1.779256 2.338388 0
M  V30 4 N -1.794229 -0.634725 1.477865 0
M  V30 5 C -0.588251 -0.629196 0.699983 0 CFG=1
M  V30 6 C -0.406131 -1.800077 -0.205437 0
M  V30 7 C 0.207211 -1.472094 -1.522899 0
M  V30 8 C 1.280706 -0.447567 -1.429815 0
M  V30 9 N 2.508474 -0.423800 -1.895824 0
M  V30 10 C 3.307044 0.423770 -1.784582 0
M  V30 11 N 4.664294 0.761140 -2.143675 0
M  V30 12 S 2.374382 1.733136 -0.770073 0
M  V30 13 C 0.891463 0.719033 -0.697596 0
M  V30 14 C -0.565798 0.608389 -0.185087 0
M  V30 15 H -1.940552 -0.567317 4.919076 0
M  V30 16 H -0.804288 0.361639 3.898215 0
M  V30 17 H -0.170352 -0.746870 5.134994 0
M  V30 18 H 0.160765 -1.866197 3.091441 0
M  V30 19 H -1.068111 -2.696346 4.059942 0
M  V30 20 H -1.715027 -2.669469 1.716573 0
M  V30 21 H -2.896608 -1.875181 2.766929 0
M  V30 22 H -1.866956 0.282273 1.955971 0
M  V30 23 H 0.343744 -0.533967 1.314958 0
M  V30 24 H 0.099547 -2.670036 0.286857 0
M  V30 25 H -1.443454 -2.191758 -0.423478 0
M  V30 26 H -0.524763 -1.118466 -2.295841 0
M  V30 27 H 0.597392 -2.430672 -1.950172 0
M  V30 28 H 5.150763 -0.087430 -2.500531 0
M  V30 29 H 5.063887 1.703489 -2.050846 0
M  V30 30 H -0.809753 1.521834 0.361335 0
M  V30 31 H -1.149380 0.400892 -1.080483 0
M  V30 END ATOM
M  V30 BEGIN BOND
M  V30 1 1 1 2
M  V30 2 1 2 3
M  V30 3 1 3 4
M  V30 4 1 4 5
M  V30 5 1 5 6
M  V30 6 1 6 7
M  V30 7 1 7 8
M  V30 8 1 8 9
M  V30 9 2 9 10
M  V30 10 1 10 11
M  V30 11 1 10 12
M  V30 12 1 12 13
M  V30 13 1 13 14
M  V30 14 1 14 5
M  V30 15 2 13 8
M  V30 16 1 1 15
M  V30 17 1 1 16
M  V30 18 1 1 17
M  V30 19 1 2 18
M  V30 20 1 2 19
M  V30 21 1 3 20
M  V30 22 1 3 21
M  V30 23 1 4 22
M  V30 24 1 5 23 CFG=1
M  V30 25 1 6 24
M  V30 26 1 6 25
M  V30 27 1 7 26
M  V30 28 1 7 27
M  V30 29 1 11 28
M  V30 30 1 11 29
M  V30 31 1 14 30
M  V30 32 1 14 31
M  V30 END BOND
M  V30 END CTAB
M  END
>  <Dataset>  (789) 
OralDrugs

>  <Ligand_Instance>  (789) 
nan

>  <PDB_ID>  (789) 
nan

>  <Standardized_SMILES>  (789) 
CCCN[C@H]1CCc2nc(N)sc2C1

>  <Name>  (789) 
Pramipexole

>  <Pocket>  (789) 
nan

>  <ATP_Site>  (789) 
nan

>  <Peripheral>  (789) 
nan

>  <Num_H_Atoms_ProtBoundConf>  (789) 
nan

>  <Num_Resolved_Atoms>  (789) 
nan

>  <Num_Not_Resolved_Atoms>  (789) 
nan

$$$$
CHEMBL21333
     RDKit          3D

  0  0  0  0  0  0  0  0  0  0999 V3000
M  V30 BEGIN CTAB
M  V30 COUNTS 59 63 0 0 0
M  V30 BEGIN ATOM
M  V30 1 O 1.696883 0.080989 3.723165 0
M  V30 2 C 1.641651 -0.811873 2.833955 0
M  V30 3 N 2.888083 -1.188593 2.272123 0
M  V30 4 C 4.172871 -0.677019 2.595939 0
M  V30 5 C 4.893580 -1.300938 3.619256 0
M  V30 6 C 6.160180 -0.831846 3.967143 0
M  V30 7 C 6.654788 0.249667 3.270546 0
M  V30 8 C 5.994445 0.903299 2.257076 0
M  V30 9 C 6.487238 1.978020 1.565306 0
M  V30 10 O 7.626079 2.416057 1.863466 0
M  V30 11 C 5.768020 2.586545 0.556581 0
M  V30 12 C 4.528062 2.013880 0.321005 0
M  V30 13 C 3.680712 2.585059 -0.732851 0
M  V30 14 N 2.454182 2.169050 -1.100576 0
M  V30 15 N 1.989793 2.917649 -2.083677 0
M  V30 16 N 2.899862 3.826535 -2.369834 0
M  V30 17 N 3.919764 3.625067 -1.554318 0
M  V30 18 O 4.065870 0.984910 0.989364 0
M  V30 19 C 4.747844 0.400816 1.952513 0
M  V30 20 C 0.364959 -1.392335 2.438516 0
M  V30 21 C 0.365050 -2.329885 1.428327 0
M  V30 22 C -0.840573 -2.873743 1.065568 0
M  V30 23 C -2.045200 -2.547660 1.639537 0
M  V30 24 O -3.281757 -2.899771 1.486552 0
M  V30 25 C -4.514425 -3.251250 1.333519 0
M  V30 26 C -5.365448 -3.079734 0.127340 0
M  V30 27 C -4.909646 -3.754791 -1.109387 0
M  V30 28 C -3.632555 -3.242982 -1.661891 0
M  V30 29 C -3.856109 -1.797324 -2.006864 0
M  V30 30 C -3.676547 -0.644902 -1.285043 0
M  V30 31 C -3.967917 0.578167 -1.835843 0
M  V30 32 C -4.446434 0.743998 -3.110353 0
M  V30 33 C -4.629523 -0.396504 -3.840123 0
M  V30 34 C -4.342442 -1.622932 -3.301236 0
M  V30 35 C -1.989392 -1.584862 2.666895 0
M  V30 36 C -0.784814 -0.989946 3.084997 0
M  V30 37 H 2.947236 -1.917531 1.532371 0
M  V30 38 H 4.505802 -2.144986 4.161614 0
M  V30 39 H 6.767142 -1.269546 4.747803 0
M  V30 40 H 7.640123 0.613202 3.542532 0
M  V30 41 H 6.156763 3.434019 0.010959 0
M  V30 42 H 4.792718 4.193322 -1.546618 0
M  V30 43 H 1.216613 -2.692170 0.879088 0
M  V30 44 H -0.906468 -3.613951 0.295911 0
M  V30 45 H -5.152075 -2.876466 2.236713 0
M  V30 46 H -4.587421 -4.403684 1.584450 0
M  V30 47 H -5.646850 -2.005322 -0.045682 0
M  V30 48 H -6.380710 -3.544075 0.370826 0
M  V30 49 H -4.755014 -4.850400 -0.827592 0
M  V30 50 H -5.725014 -3.806664 -1.878207 0
M  V30 51 H -3.317277 -3.804935 -2.569497 0
M  V30 52 H -2.846276 -3.363215 -0.932711 0
M  V30 53 H -3.299020 -0.835475 -0.293756 0
M  V30 54 H -3.791935 1.425531 -1.185749 0
M  V30 55 H -4.634430 1.743853 -3.423791 0
M  V30 56 H -5.011032 -0.268771 -4.856885 0
M  V30 57 H -4.535496 -2.453329 -3.994415 0
M  V30 58 H -2.809391 -1.165163 3.272928 0
M  V30 59 H -0.676247 -0.249997 3.862563 0
M  V30 END ATOM
M  V30 BEGIN BOND
M  V30 1 2 1 2
M  V30 2 1 2 3
M  V30 3 1 3 4
M  V30 4 2 4 5
M  V30 5 1 5 6
M  V30 6 2 6 7
M  V30 7 1 7 8
M  V30 8 1 8 9
M  V30 9 2 9 10
M  V30 10 1 9 11
M  V30 11 2 11 12
M  V30 12 1 12 13
M  V30 13 2 13 14
M  V30 14 1 14 15
M  V30 15 2 15 16
M  V30 16 1 16 17
M  V30 17 1 12 18
M  V30 18 1 18 19
M  V30 19 1 2 20
M  V30 20 2 20 21
M  V30 21 1 21 22
M  V30 22 2 22 23
M  V30 23 1 23 24
M  V30 24 1 24 25
M  V30 25 1 25 26
M  V30 26 1 26 27
M  V30 27 1 27 28
M  V30 28 1 28 29
M  V30 29 2 29 30
M  V30 30 1 30 31
M  V30 31 2 31 32
M  V30 32 1 32 33
M  V30 33 2 33 34
M  V30 34 1 23 35
M  V30 35 2 35 36
M  V30 36 1 19 4
M  V30 37 1 36 20
M  V30 38 2 19 8
M  V30 39 1 34 29
M  V30 40 1 17 13
M  V30 41 1 3 37
M  V30 42 1 5 38
M  V30 43 1 6 39
M  V30 44 1 7 40
M  V30 45 1 11 41
M  V30 46 1 17 42
M  V30 47 1 21 43
M  V30 48 1 22 44
M  V30 49 1 25 45
M  V30 50 1 25 46
M  V30 51 1 26 47
M  V30 52 1 26 48
M  V30 53 1 27 49
M  V30 54 1 27 50
M  V30 55 1 28 51
M  V30 56 1 28 52
M  V30 57 1 30 53
M  V30 58 1 31 54
M  V30 59 1 32 55
M  V30 60 1 33 56
M  V30 61 1 34 57
M  V30 62 1 35 58
M  V30 63 1 36 59
M  V30 END BOND
M  V30 END CTAB
M  END
>  <Dataset>  (790) 
OralDrugs

>  <Ligand_Instance>  (790) 
nan

>  <PDB_ID>  (790) 
nan

>  <Standardized_SMILES>  (790) 
O=C(Nc1cccc2c(=O)cc(-c3nnn[nH]3)oc12)c1ccc(OCCCCc2ccccc2)cc1

>  <Name>  (790) 
Pranlukast

>  <Pocket>  (790) 
nan

>  <ATP_Site>  (790) 
nan

>  <Peripheral>  (790) 
nan

>  <Num_H_Atoms_ProtBoundConf>  (790) 
nan

>  <Num_Resolved_Atoms>  (790) 
nan

>  <Num_Not_Resolved_Atoms>  (790) 
nan

$$$$
CHEMBL1144
     RDKit          3D

  0  0  0  0  0  0  0  0  0  0999 V3000
M  V30 BEGIN CTAB
M  V30 COUNTS 66 67 0 0 0
M  V30 BEGIN ATOM
M  V30 1 C 1.259191 2.030942 4.685140 0
M  V30 2 C 2.361093 1.071919 4.261186 0
M  V30 3 C 1.743161 -0.210502 3.738944 0 CFG=2
M  V30 4 C 2.817077 -1.186446 3.308516 0
M  V30 5 C 0.715604 0.034689 2.723810 0
M  V30 6 O -0.454277 -0.345121 2.885105 0
M  V30 7 O 0.893930 0.679690 1.527264 0
M  V30 8 C -0.107495 0.905355 0.566526 0 CFG=1
M  V30 9 C -0.252655 2.412086 0.460549 0
M  V30 10 C -0.603468 2.882027 -0.923128 0 CFG=2
M  V30 11 O -1.760262 2.273290 -1.403366 0
M  V30 12 C 0.595883 2.553239 -1.775838 0
M  V30 13 C 0.899701 1.280404 -1.617716 0
M  V30 14 C 2.068050 0.837709 -2.409875 0
M  V30 15 C 2.910699 -0.123822 -1.994006 0
M  V30 16 C 2.463445 -0.619853 -0.666729 0 CFG=2
M  V30 17 C 3.343842 -1.728464 -0.167645 0
M  V30 18 C 0.992572 -1.001344 -0.651579 0 CFG=2
M  V30 19 C 0.681238 -2.026216 -1.676453 0
M  V30 20 C -0.743743 -2.478334 -1.741831 0
M  V30 21 C -1.289938 -3.091000 -0.500132 0 CFG=1
M  V30 22 O -1.289799 -2.268775 0.618147 0
M  V30 23 C -2.544920 -3.866917 -0.678264 0
M  V30 24 C -3.743401 -3.199381 -1.198285 0 CFG=1
M  V30 25 O -4.819970 -4.098747 -1.293003 0
M  V30 26 C -4.262074 -2.006666 -0.508225 0
M  V30 27 C -4.655377 -2.214483 0.902946 0
M  V30 28 O -4.583371 -3.300513 1.541652 0
M  V30 29 O -5.150620 -1.115466 1.593992 0
M  V30 30 C 0.210917 0.259549 -0.760395 0 CFG=1
M  V30 31 H 0.308535 1.449298 4.760170 0
M  V30 32 H 1.153180 2.824221 3.929683 0
M  V30 33 H 1.461126 2.477874 5.678456 0
M  V30 34 H 2.932998 0.824462 5.190732 0
M  V30 35 H 3.076933 1.520040 3.554483 0
M  V30 36 H 1.258503 -0.676692 4.646483 0
M  V30 37 H 2.310096 -2.093584 2.911810 0
M  V30 38 H 3.418648 -1.463800 4.210223 0
M  V30 39 H 3.490648 -0.751418 2.556613 0
M  V30 40 H -1.043013 0.445955 0.966147 0
M  V30 41 H -0.975931 2.780374 1.230323 0
M  V30 42 H 0.724918 2.910060 0.718444 0
M  V30 43 H -0.795169 3.956360 -0.863584 0
M  V30 44 H -2.278708 1.899663 -0.640557 0
M  V30 45 H 1.120006 3.241886 -2.410761 0
M  V30 46 H 2.241494 1.328079 -3.382704 0
M  V30 47 H 3.750128 -0.413781 -2.608549 0
M  V30 48 H 2.578491 0.236844 0.020780 0
M  V30 49 H 3.737028 -2.369465 -0.980641 0
M  V30 50 H 4.221028 -1.270625 0.333279 0
M  V30 51 H 2.830823 -2.354639 0.589054 0
M  V30 52 H 0.834214 -1.433071 0.364374 0
M  V30 53 H 1.292780 -2.941216 -1.512319 0
M  V30 54 H 1.001314 -1.651934 -2.678739 0
M  V30 55 H -1.387006 -1.640833 -2.013153 0
M  V30 56 H -0.744414 -3.278580 -2.536208 0
M  V30 57 H -0.517847 -3.876499 -0.223688 0
M  V30 58 H -1.155690 -2.758939 1.456581 0
M  V30 59 H -2.293340 -4.735637 -1.324313 0
M  V30 60 H -2.770462 -4.310751 0.317743 0
M  V30 61 H -3.557614 -2.888938 -2.252406 0
M  V30 62 H -5.433741 -3.990315 -0.529069 0
M  V30 63 H -5.214034 -1.731027 -1.025573 0
M  V30 64 H -3.629834 -1.083752 -0.648935 0
M  V30 65 H -5.336815 -1.167435 2.577784 0
M  V30 66 H -0.747525 0.074662 -1.312034 0
M  V30 END ATOM
M  V30 BEGIN BOND
M  V30 1 1 1 2
M  V30 2 1 2 3
M  V30 3 1 3 4
M  V30 4 1 3 5
M  V30 5 2 5 6
M  V30 6 1 5 7
M  V30 7 1 7 8
M  V30 8 1 8 9
M  V30 9 1 9 10
M  V30 10 1 10 11
M  V30 11 1 10 12
M  V30 12 2 12 13
M  V30 13 1 13 14
M  V30 14 2 14 15
M  V30 15 1 15 16
M  V30 16 1 16 17
M  V30 17 1 16 18
M  V30 18 1 18 19
M  V30 19 1 19 20
M  V30 20 1 20 21
M  V30 21 1 21 22
M  V30 22 1 21 23
M  V30 23 1 23 24
M  V30 24 1 24 25
M  V30 25 1 24 26
M  V30 26 1 26 27
M  V30 27 2 27 28
M  V30 28 1 27 29
M  V30 29 1 18 30
M  V30 30 1 30 8
M  V30 31 1 30 13
M  V30 32 1 1 31
M  V30 33 1 1 32
M  V30 34 1 1 33
M  V30 35 1 2 34
M  V30 36 1 2 35
M  V30 37 1 3 36 CFG=1
M  V30 38 1 4 37
M  V30 39 1 4 38
M  V30 40 1 4 39
M  V30 41 1 8 40 CFG=1
M  V30 42 1 9 41
M  V30 43 1 9 42
M  V30 44 1 10 43 CFG=1
M  V30 45 1 11 44
M  V30 46 1 12 45
M  V30 47 1 14 46
M  V30 48 1 15 47
M  V30 49 1 16 48 CFG=1
M  V30 50 1 17 49
M  V30 51 1 17 50
M  V30 52 1 17 51
M  V30 53 1 18 52 CFG=1
M  V30 54 1 19 53
M  V30 55 1 19 54
M  V30 56 1 20 55
M  V30 57 1 20 56
M  V30 58 1 21 57 CFG=1
M  V30 59 1 22 58
M  V30 60 1 23 59
M  V30 61 1 23 60
M  V30 62 1 24 61 CFG=3
M  V30 63 1 25 62
M  V30 64 1 26 63
M  V30 65 1 26 64
M  V30 66 1 29 65
M  V30 67 1 30 66 CFG=3
M  V30 END BOND
M  V30 END CTAB
M  END
>  <Dataset>  (791) 
OralDrugs

>  <Ligand_Instance>  (791) 
nan

>  <PDB_ID>  (791) 
nan

>  <Standardized_SMILES>  (791) 
CC[C@H](C)C(=O)O[C@H]1C[C@H](O)C=C2C=C[C@H](C)[C@H](CC[C@@H](O)C[C@@H](O)CC(=O)O)[C@H]21

>  <Name>  (791) 
Pravastatin

>  <Pocket>  (791) 
nan

>  <ATP_Site>  (791) 
nan

>  <Peripheral>  (791) 
nan

>  <Num_H_Atoms_ProtBoundConf>  (791) 
nan

>  <Num_Resolved_Atoms>  (791) 
nan

>  <Num_Not_Resolved_Atoms>  (791) 
nan

$$$$
CHEMBL969
     RDKit          3D

  0  0  0  0  0  0  0  0  0  0999 V3000
M  V30 BEGIN CTAB
M  V30 COUNTS 40 43 0 0 0
M  V30 BEGIN ATOM
M  V30 1 O -2.150947 -2.458991 2.771096 0
M  V30 2 C -1.707017 -1.983732 1.665316 0
M  V30 3 C -1.453705 -2.848519 0.489549 0
M  V30 4 N -0.182064 -2.604062 -0.134733 0
M  V30 5 C 0.386909 -1.485778 -0.485226 0
M  V30 6 C 1.694045 -1.594179 -1.092450 0
M  V30 7 C 2.090007 -2.902610 -1.398337 0
M  V30 8 C 3.314019 -3.270003 -1.910991 0
M  V30 9 C 4.256743 -2.297581 -2.157955 0
M  V30 10 C 3.938962 -0.987000 -1.880398 0
M  V30 11 C 2.696687 -0.710267 -1.370307 0
M  V30 12 C -0.255937 -0.183220 -0.345709 0
M  V30 13 C 0.099119 0.622663 -1.441598 0
M  V30 14 C -0.399513 1.908549 -1.412382 0
M  V30 15 Cl 0.042676 2.916970 -2.772010 0
M  V30 16 C -1.202038 2.343477 -0.349733 0
M  V30 17 C -1.540808 1.541539 0.708137 0
M  V30 18 C -1.058861 0.261145 0.702684 0
M  V30 19 N -1.527629 -0.536036 1.820339 0
M  V30 20 C -1.785009 0.171943 3.019629 0
M  V30 21 C -0.523842 0.220744 3.834118 0
M  V30 22 C -0.549611 0.925260 5.159686 0
M  V30 23 C 0.306395 1.404957 4.031119 0
M  V30 24 H -1.516135 -3.895921 0.816366 0
M  V30 25 H -2.247123 -2.665543 -0.247631 0
M  V30 26 H 1.435752 -3.767181 -1.249567 0
M  V30 27 H 3.593451 -4.285179 -2.137727 0
M  V30 28 H 5.242546 -2.477069 -2.558104 0
M  V30 29 H 4.619887 -0.170633 -2.045143 0
M  V30 30 H 2.481015 0.302375 -1.105271 0
M  V30 31 H 0.683149 0.207496 -2.244483 0
M  V30 32 H -1.565544 3.359564 -0.374435 0
M  V30 33 H -2.129219 1.811446 1.519683 0
M  V30 34 H -2.529762 0.918481 3.141467 0
M  V30 35 H -2.347334 -0.635775 3.649375 0
M  V30 36 H 0.010179 -0.754447 3.855325 0
M  V30 37 H 0.001220 0.522427 6.023954 0
M  V30 38 H -1.458700 1.501746 5.451329 0
M  V30 39 H 1.412355 1.296431 4.084456 0
M  V30 40 H 0.029159 2.428069 3.676390 0
M  V30 END ATOM
M  V30 BEGIN BOND
M  V30 1 2 1 2
M  V30 2 1 2 3
M  V30 3 1 3 4
M  V30 4 2 4 5
M  V30 5 1 5 6
M  V30 6 2 6 7
M  V30 7 1 7 8
M  V30 8 2 8 9
M  V30 9 1 9 10
M  V30 10 2 10 11
M  V30 11 1 5 12
M  V30 12 2 12 13
M  V30 13 1 13 14
M  V30 14 1 14 15
M  V30 15 2 14 16
M  V30 16 1 16 17
M  V30 17 2 17 18
M  V30 18 1 18 19
M  V30 19 1 19 20
M  V30 20 1 20 21
M  V30 21 1 21 22
M  V30 22 1 22 23
M  V30 23 1 19 2
M  V30 24 1 23 21
M  V30 25 1 11 6
M  V30 26 1 18 12
M  V30 27 1 3 24
M  V30 28 1 3 25
M  V30 29 1 7 26
M  V30 30 1 8 27
M  V30 31 1 9 28
M  V30 32 1 10 29
M  V30 33 1 11 30
M  V30 34 1 13 31
M  V30 35 1 16 32
M  V30 36 1 17 33
M  V30 37 1 20 34
M  V30 38 1 20 35
M  V30 39 1 21 36
M  V30 40 1 22 37
M  V30 41 1 22 38
M  V30 42 1 23 39
M  V30 43 1 23 40
M  V30 END BOND
M  V30 END CTAB
M  END
>  <Dataset>  (792) 
OralDrugs

>  <Ligand_Instance>  (792) 
nan

>  <PDB_ID>  (792) 
nan

>  <Standardized_SMILES>  (792) 
O=C1CN=C(c2ccccc2)c2cc(Cl)ccc2N1CC1CC1

>  <Name>  (792) 
Prazepam

>  <Pocket>  (792) 
nan

>  <ATP_Site>  (792) 
nan

>  <Peripheral>  (792) 
nan

>  <Num_H_Atoms_ProtBoundConf>  (792) 
nan

>  <Num_Resolved_Atoms>  (792) 
nan

>  <Num_Not_Resolved_Atoms>  (792) 
nan

$$$$
CHEMBL976
     RDKit          3D

  0  0  0  0  0  0  0  0  0  0999 V3000
M  V30 BEGIN CTAB
M  V30 COUNTS 47 50 0 0 0
M  V30 BEGIN ATOM
M  V30 1 O -3.085300 -1.717727 0.152030 0
M  V30 2 C -1.828822 -1.636856 -0.135157 0
M  V30 3 C -1.207308 -2.605280 -1.098420 0
M  V30 4 C -0.122315 -3.405524 -0.468952 0
M  V30 5 C 1.007914 -3.852716 -1.312125 0
M  V30 6 C 1.356676 -3.026303 -2.489264 0
M  V30 7 C 0.176196 -2.540220 -3.223040 0
M  V30 8 C -0.981983 -2.040334 -2.454447 0
M  V30 9 N -0.985679 -0.618430 0.456703 0
M  V30 10 C 0.438740 -0.386003 0.245180 0
M  V30 11 C 0.711171 1.086201 0.096007 0
M  V30 12 O 1.323010 1.796007 -0.773018 0
M  V30 13 N 0.144164 1.802737 1.184017 0
M  V30 14 C 0.568030 3.171873 1.534090 0
M  V30 15 C 1.007568 3.198578 3.003922 0
M  V30 16 C 0.743018 1.891326 3.674626 0
M  V30 17 C 1.523779 1.691349 4.818639 0
M  V30 18 C 1.419398 0.544013 5.568842 0
M  V30 19 C 0.522384 -0.418335 5.171522 0
M  V30 20 C -0.260211 -0.250001 4.049513 0
M  V30 21 C -0.160111 0.897090 3.294089 0
M  V30 22 C -0.891447 1.289719 2.065712 0
M  V30 23 C -1.661649 0.279521 1.374990 0
M  V30 24 H -2.004520 -3.367072 -1.290806 0
M  V30 25 H -0.486922 -4.352367 0.039634 0
M  V30 26 H 0.280572 -2.834875 0.394634 0
M  V30 27 H 0.862440 -4.913890 -1.673613 0
M  V30 28 H 1.939187 -3.939673 -0.687214 0
M  V30 29 H 2.067992 -2.240560 -2.162741 0
M  V30 30 H 1.966181 -3.658790 -3.183579 0
M  V30 31 H -0.104567 -3.313415 -3.999684 0
M  V30 32 H 0.530623 -1.686551 -3.868464 0
M  V30 33 H -1.846973 -2.152519 -3.164236 0
M  V30 34 H -0.993964 -0.913070 -2.343485 0
M  V30 35 H 1.078543 -0.684806 1.069469 0
M  V30 36 H 0.785416 -0.786546 -0.748136 0
M  V30 37 H -0.358041 3.775594 1.448134 0
M  V30 38 H 1.360955 3.542378 0.873513 0
M  V30 39 H 2.089224 3.436332 3.051464 0
M  V30 40 H 0.430606 3.976647 3.540216 0
M  V30 41 H 2.257509 2.399988 5.204069 0
M  V30 42 H 1.971233 0.302536 6.454430 0
M  V30 43 H 0.301845 -1.390572 5.639733 0
M  V30 44 H -0.998084 -0.924907 3.632912 0
M  V30 45 H -1.576888 2.113204 2.355307 0
M  V30 46 H -2.306490 -0.295849 2.083356 0
M  V30 47 H -2.413015 0.813827 0.721225 0
M  V30 END ATOM
M  V30 BEGIN BOND
M  V30 1 2 1 2
M  V30 2 1 2 3
M  V30 3 1 3 4
M  V30 4 1 4 5
M  V30 5 1 5 6
M  V30 6 1 6 7
M  V30 7 1 7 8
M  V30 8 1 2 9
M  V30 9 1 9 10
M  V30 10 1 10 11
M  V30 11 2 11 12
M  V30 12 1 11 13
M  V30 13 1 13 14
M  V30 14 1 14 15
M  V30 15 1 15 16
M  V30 16 2 16 17
M  V30 17 1 17 18
M  V30 18 2 18 19
M  V30 19 1 19 20
M  V30 20 2 20 21
M  V30 21 1 21 22
M  V30 22 1 22 23
M  V30 23 1 8 3
M  V30 24 1 23 9
M  V30 25 1 22 13
M  V30 26 1 21 16
M  V30 27 1 3 24
M  V30 28 1 4 25
M  V30 29 1 4 26
M  V30 30 1 5 27
M  V30 31 1 5 28
M  V30 32 1 6 29
M  V30 33 1 6 30
M  V30 34 1 7 31
M  V30 35 1 7 32
M  V30 36 1 8 33
M  V30 37 1 8 34
M  V30 38 1 10 35
M  V30 39 1 10 36
M  V30 40 1 14 37
M  V30 41 1 14 38
M  V30 42 1 15 39
M  V30 43 1 15 40
M  V30 44 1 17 41
M  V30 45 1 18 42
M  V30 46 1 19 43
M  V30 47 1 20 44
M  V30 48 1 22 45
M  V30 49 1 23 46
M  V30 50 1 23 47
M  V30 END BOND
M  V30 END CTAB
M  END
>  <Dataset>  (793) 
OralDrugs

>  <Ligand_Instance>  (793) 
nan

>  <PDB_ID>  (793) 
nan

>  <Standardized_SMILES>  (793) 
O=C(C1CCCCC1)N1CC(=O)N2CCc3ccccc3C2C1

>  <Name>  (793) 
Praziquantel

>  <Pocket>  (793) 
nan

>  <ATP_Site>  (793) 
nan

>  <Peripheral>  (793) 
nan

>  <Num_H_Atoms_ProtBoundConf>  (793) 
nan

>  <Num_Resolved_Atoms>  (793) 
nan

>  <Num_Not_Resolved_Atoms>  (793) 
nan

$$$$
CHEMBL2
     RDKit          3D

  0  0  0  0  0  0  0  0  0  0999 V3000
M  V30 BEGIN CTAB
M  V30 COUNTS 49 52 0 0 0
M  V30 BEGIN ATOM
M  V30 1 C -0.032062 -5.322712 3.051885 0
M  V30 2 O -1.351933 -5.150654 2.518964 0
M  V30 3 C -1.548006 -4.128098 1.613065 0
M  V30 4 C -0.472450 -3.334271 1.272383 0
M  V30 5 C -0.649140 -2.307791 0.368676 0
M  V30 6 N 0.345246 -1.491244 -0.012258 0
M  V30 7 C 0.247797 -0.478059 -0.878388 0
M  V30 8 N 1.375963 0.319510 -1.206318 0
M  V30 9 C 1.298781 1.456892 -2.101436 0
M  V30 10 C 2.198534 2.560653 -1.589331 0
M  V30 11 N 2.356729 2.352810 -0.163624 0
M  V30 12 C 1.917301 3.378672 0.720488 0
M  V30 13 O 1.402639 4.443910 0.289884 0
M  V30 14 C 2.076160 3.176944 2.176112 0
M  V30 15 C 3.080796 2.680040 2.978117 0
M  V30 16 C 2.660975 2.734021 4.290422 0
M  V30 17 C 1.382736 3.275908 4.235301 0
M  V30 18 O 1.094011 3.514920 2.983432 0
M  V30 19 C 2.942658 1.139922 0.352968 0
M  V30 20 C 2.683089 0.023981 -0.651529 0
M  V30 21 N -0.959486 -0.250236 -1.424187 0
M  V30 22 C -1.995508 -1.060820 -1.061276 0
M  V30 23 N -3.245650 -0.784272 -1.660654 0
M  V30 24 C -1.902818 -2.107244 -0.168627 0
M  V30 25 C -2.996375 -2.882852 0.151710 0
M  V30 26 C -2.797484 -3.906351 1.059701 0
M  V30 27 O -3.853207 -4.726078 1.427015 0
M  V30 28 C -5.151280 -4.559891 0.904008 0
M  V30 29 H 0.719153 -5.444079 2.229749 0
M  V30 30 H 0.033982 -6.214309 3.701335 0
M  V30 31 H 0.290809 -4.442371 3.640600 0
M  V30 32 H 0.514441 -3.485675 1.689419 0
M  V30 33 H 1.536868 1.179983 -3.146960 0
M  V30 34 H 0.270140 1.903543 -2.138196 0
M  V30 35 H 1.832142 3.559420 -1.840957 0
M  V30 36 H 3.215020 2.350582 -2.021809 0
M  V30 37 H 3.998224 2.335307 2.533437 0
M  V30 38 H 3.315660 2.387593 5.064089 0
M  V30 39 H 0.817732 3.428538 5.142860 0
M  V30 40 H 4.050314 1.290398 0.374926 0
M  V30 41 H 2.542993 0.844539 1.353397 0
M  V30 42 H 3.470149 0.001782 -1.431396 0
M  V30 43 H 2.661194 -0.971819 -0.143398 0
M  V30 44 H -4.156296 -0.561185 -1.166736 0
M  V30 45 H -4.135015 -0.588557 -2.123508 0
M  V30 46 H -3.959458 -2.674014 -0.305983 0
M  V30 47 H -5.872674 -5.061704 1.580014 0
M  V30 48 H -5.410022 -3.481030 0.877385 0
M  V30 49 H -5.250473 -5.032003 -0.099173 0
M  V30 END ATOM
M  V30 BEGIN BOND
M  V30 1 1 1 2
M  V30 2 1 2 3
M  V30 3 2 3 4
M  V30 4 1 4 5
M  V30 5 2 5 6
M  V30 6 1 6 7
M  V30 7 1 7 8
M  V30 8 1 8 9
M  V30 9 1 9 10
M  V30 10 1 10 11
M  V30 11 1 11 12
M  V30 12 2 12 13
M  V30 13 1 12 14
M  V30 14 2 14 15
M  V30 15 1 15 16
M  V30 16 2 16 17
M  V30 17 1 17 18
M  V30 18 1 11 19
M  V30 19 1 19 20
M  V30 20 2 7 21
M  V30 21 1 21 22
M  V30 22 1 22 23
M  V30 23 2 22 24
M  V30 24 1 24 25
M  V30 25 2 25 26
M  V30 26 1 26 27
M  V30 27 1 27 28
M  V30 28 1 26 3
M  V30 29 1 24 5
M  V30 30 1 20 8
M  V30 31 1 18 14
M  V30 32 1 1 29
M  V30 33 1 1 30
M  V30 34 1 1 31
M  V30 35 1 4 32
M  V30 36 1 9 33
M  V30 37 1 9 34
M  V30 38 1 10 35
M  V30 39 1 10 36
M  V30 40 1 15 37
M  V30 41 1 16 38
M  V30 42 1 17 39
M  V30 43 1 19 40
M  V30 44 1 19 41
M  V30 45 1 20 42
M  V30 46 1 20 43
M  V30 47 1 23 44
M  V30 48 1 23 45
M  V30 49 1 25 46
M  V30 50 1 28 47
M  V30 51 1 28 48
M  V30 52 1 28 49
M  V30 END BOND
M  V30 END CTAB
M  END
>  <Dataset>  (794) 
OralDrugs

>  <Ligand_Instance>  (794) 
nan

>  <PDB_ID>  (794) 
nan

>  <Standardized_SMILES>  (794) 
COc1cc2nc(N3CCN(C(=O)c4ccco4)CC3)nc(N)c2cc1OC

>  <Name>  (794) 
Prazosin

>  <Pocket>  (794) 
nan

>  <ATP_Site>  (794) 
nan

>  <Peripheral>  (794) 
nan

>  <Num_H_Atoms_ProtBoundConf>  (794) 
nan

>  <Num_Resolved_Atoms>  (794) 
nan

>  <Num_Not_Resolved_Atoms>  (794) 
nan

$$$$
CHEMBL131
     RDKit          3D

  0  0  0  0  0  0  0  0  0  0999 V3000
M  V30 BEGIN CTAB
M  V30 COUNTS 54 57 0 0 0
M  V30 BEGIN ATOM
M  V30 1 C -0.345918 -0.767606 -2.727112 0
M  V30 2 C -0.165138 0.503237 -1.939792 0 CFG=2
M  V30 3 C -1.128675 1.518528 -2.415760 0
M  V30 4 C -0.955944 2.677390 -3.026800 0
M  V30 5 C 0.443580 3.001727 -3.269759 0
M  V30 6 O 0.716627 4.083532 -3.846116 0
M  V30 7 C 1.530823 2.120471 -2.869947 0
M  V30 8 C 1.198067 0.997444 -2.268966 0
M  V30 9 C 2.337435 0.114425 -1.870434 0
M  V30 10 C 2.207249 -0.283550 -0.420897 0
M  V30 11 C 0.832433 -0.656571 -0.021454 0 CFG=2
M  V30 12 C -0.212846 0.345801 -0.459119 0 CFG=2
M  V30 13 C -1.550240 0.120963 0.107325 0 CFG=1
M  V30 14 O -2.425077 -0.623521 -0.717284 0
M  V30 15 C -1.633929 -0.475455 1.452607 0
M  V30 16 C -0.503110 -1.403479 1.817879 0 CFG=1
M  V30 17 C -0.618284 -2.680180 1.036693 0
M  V30 18 C 0.753795 -0.617793 1.476846 0 CFG=1
M  V30 19 C 1.790619 -1.341346 2.234341 0
M  V30 20 C 1.127629 -1.325875 3.621213 0
M  V30 21 C -0.340343 -1.613479 3.278132 0 CFG=1
M  V30 22 O -1.201593 -0.810867 4.023628 0
M  V30 23 C -0.505866 -3.069410 3.570121 0
M  V30 24 O -0.406861 -4.305596 3.589927 0
M  V30 25 C -1.514620 -3.480293 4.568671 0
M  V30 26 O -1.484621 -4.877312 4.669542 0
M  V30 27 H 0.391000 -1.548267 -2.454589 0
M  V30 28 H -0.077737 -0.500739 -3.791304 0
M  V30 29 H -1.332362 -1.213064 -2.696031 0
M  V30 30 H -2.125371 1.171350 -2.182474 0
M  V30 31 H -1.801165 3.283378 -3.296537 0
M  V30 32 H 2.556927 2.380704 -3.059704 0
M  V30 33 H 2.286299 -0.812392 -2.477909 0
M  V30 34 H 3.326987 0.554002 -2.092463 0
M  V30 35 H 2.631642 0.545578 0.181663 0
M  V30 36 H 2.899774 -1.136288 -0.269126 0
M  V30 37 H 0.551906 -1.638127 -0.430943 0
M  V30 38 H 0.160336 1.326884 -0.040499 0
M  V30 39 H -2.076101 1.117723 0.175169 0
M  V30 40 H -3.375731 -0.381604 -0.554851 0
M  V30 41 H -1.612426 0.331924 2.242122 0
M  V30 42 H -2.583449 -1.028060 1.617327 0
M  V30 43 H -1.257258 -3.405135 1.607927 0
M  V30 44 H -1.212070 -2.514703 0.098204 0
M  V30 45 H 0.340803 -3.200017 0.864174 0
M  V30 46 H 0.651550 0.409062 1.854863 0
M  V30 47 H 2.744519 -0.785638 2.369757 0
M  V30 48 H 1.944953 -2.379074 1.903522 0
M  V30 49 H 1.572328 -2.078529 4.273687 0
M  V30 50 H 1.234525 -0.287088 4.043120 0
M  V30 51 H -2.053018 -1.264850 4.176672 0
M  V30 52 H -2.557864 -3.239678 4.257672 0
M  V30 53 H -1.264518 -3.069425 5.547332 0
M  V30 54 H -2.018712 -5.312563 3.948429 0
M  V30 END ATOM
M  V30 BEGIN BOND
M  V30 1 1 2 1 CFG=3
M  V30 2 1 2 3
M  V30 3 2 3 4
M  V30 4 1 4 5
M  V30 5 2 5 6
M  V30 6 1 5 7
M  V30 7 2 7 8
M  V30 8 1 8 9
M  V30 9 1 9 10
M  V30 10 1 10 11
M  V30 11 1 11 12
M  V30 12 1 12 13
M  V30 13 1 13 14
M  V30 14 1 13 15
M  V30 15 1 15 16
M  V30 16 1 16 17 CFG=3
M  V30 17 1 16 18
M  V30 18 1 18 19
M  V30 19 1 19 20
M  V30 20 1 20 21
M  V30 21 1 21 22 CFG=1
M  V30 22 1 21 23
M  V30 23 2 23 24
M  V30 24 1 23 25
M  V30 25 1 25 26
M  V30 26 1 8 2
M  V30 27 1 18 11
M  V30 28 1 12 2
M  V30 29 1 21 16
M  V30 30 1 1 27
M  V30 31 1 1 28
M  V30 32 1 1 29
M  V30 33 1 3 30
M  V30 34 1 4 31
M  V30 35 1 7 32
M  V30 36 1 9 33
M  V30 37 1 9 34
M  V30 38 1 10 35
M  V30 39 1 10 36
M  V30 40 1 11 37 CFG=3
M  V30 41 1 12 38 CFG=1
M  V30 42 1 13 39 CFG=1
M  V30 43 1 14 40
M  V30 44 1 15 41
M  V30 45 1 15 42
M  V30 46 1 17 43
M  V30 47 1 17 44
M  V30 48 1 17 45
M  V30 49 1 18 46 CFG=1
M  V30 50 1 19 47
M  V30 51 1 19 48
M  V30 52 1 20 49
M  V30 53 1 20 50
M  V30 54 1 22 51
M  V30 55 1 25 52
M  V30 56 1 25 53
M  V30 57 1 26 54
M  V30 END BOND
M  V30 END CTAB
M  END
>  <Dataset>  (795) 
OralDrugs

>  <Ligand_Instance>  (795) 
nan

>  <PDB_ID>  (795) 
nan

>  <Standardized_SMILES>  (795) 
C[C@]12C=CC(=O)C=C1CC[C@@H]1[C@@H]2[C@@H](O)C[C@@]2(C)[C@H]1CC[C@]2(O)C(=O)CO

>  <Name>  (795) 
Prednisolone

>  <Pocket>  (795) 
nan

>  <ATP_Site>  (795) 
nan

>  <Peripheral>  (795) 
nan

>  <Num_H_Atoms_ProtBoundConf>  (795) 
nan

>  <Num_Resolved_Atoms>  (795) 
nan

>  <Num_Not_Resolved_Atoms>  (795) 
nan

$$$$
CHEMBL1152
     RDKit          3D

  0  0  0  0  0  0  0  0  0  0999 V3000
M  V30 BEGIN CTAB
M  V30 COUNTS 59 62 0 0 0
M  V30 BEGIN ATOM
M  V30 1 C -0.029385 -3.279218 5.191083 0
M  V30 2 C 0.908243 -4.124281 4.393191 0
M  V30 3 O 1.248632 -5.315400 4.609272 0
M  V30 4 O 1.439678 -3.462616 3.288641 0
M  V30 5 C 2.347643 -4.040238 2.378355 0
M  V30 6 C 2.742850 -3.083526 1.291095 0
M  V30 7 O 3.530130 -3.540423 0.476801 0
M  V30 8 C 2.167739 -1.740789 1.308749 0 CFG=1
M  V30 9 O 1.301172 -1.499102 2.354604 0
M  V30 10 C 3.185863 -0.615056 1.298967 0
M  V30 11 C 2.533903 0.527661 0.505153 0
M  V30 12 C 1.131299 0.049646 0.425861 0 CFG=1
M  V30 13 C 0.254086 0.673598 -0.612254 0 CFG=2
M  V30 14 C -0.029114 2.114677 -0.428868 0
M  V30 15 C -1.328584 2.510715 0.144753 0
M  V30 16 C -2.473181 1.610989 -0.143423 0
M  V30 17 C -3.608625 1.812257 0.504283 0
M  V30 18 C -4.671468 0.879912 0.155632 0
M  V30 19 O -5.783731 1.030497 0.750193 0
M  V30 20 C -4.446795 -0.170593 -0.833430 0
M  V30 21 C -3.289151 -0.322230 -1.448808 0
M  V30 22 C -2.160265 0.563474 -1.169714 0 CFG=1
M  V30 23 C -1.839832 1.293596 -2.457740 0
M  V30 24 C -1.005787 -0.167855 -0.601843 0 CFG=1
M  V30 25 C -0.735363 -1.536807 -1.154833 0 CFG=1
M  V30 26 O -0.154735 -1.499870 -2.404745 0
M  V30 27 C 0.159619 -2.215825 -0.125457 0
M  V30 28 C 1.384919 -1.402075 0.035011 0 CFG=2
M  V30 29 C 2.317585 -1.563848 -1.120295 0
M  V30 30 H 0.455373 -2.413768 5.665572 0
M  V30 31 H -0.861585 -2.908454 4.559376 0
M  V30 32 H -0.422227 -3.919640 6.009772 0
M  V30 33 H 1.785308 -4.872213 1.863568 0
M  V30 34 H 3.212897 -4.462186 2.893731 0
M  V30 35 H 1.596903 -0.837842 3.008696 0
M  V30 36 H 3.340567 -0.211711 2.336513 0
M  V30 37 H 4.168891 -0.893544 0.928732 0
M  V30 38 H 2.660286 1.504075 1.022796 0
M  V30 39 H 3.004950 0.503507 -0.481592 0
M  V30 40 H 0.646520 0.063846 1.403112 0
M  V30 41 H 0.801109 0.568268 -1.581874 0
M  V30 42 H 0.784657 2.507199 0.253623 0
M  V30 43 H 0.161108 2.706457 -1.376014 0
M  V30 44 H -1.617586 3.515359 -0.285438 0
M  V30 45 H -1.215132 2.707656 1.231181 0
M  V30 46 H -3.661421 2.623175 1.217377 0
M  V30 47 H -5.280781 -0.825783 -1.041161 0
M  V30 48 H -3.109725 -1.090110 -2.177706 0
M  V30 49 H -0.826725 1.093256 -2.845466 0
M  V30 50 H -2.522407 0.990959 -3.297679 0
M  V30 51 H -1.995591 2.388464 -2.368993 0
M  V30 52 H -1.243019 -0.345611 0.489398 0
M  V30 53 H -1.673059 -2.121457 -1.163745 0
M  V30 54 H -0.346691 -2.333088 -2.906087 0
M  V30 55 H -0.430637 -2.219377 0.814261 0
M  V30 56 H 0.445031 -3.215470 -0.444463 0
M  V30 57 H 2.198147 -0.871930 -1.949984 0
M  V30 58 H 3.385311 -1.544866 -0.841642 0
M  V30 59 H 2.131052 -2.587381 -1.536549 0
M  V30 END ATOM
M  V30 BEGIN BOND
M  V30 1 1 1 2
M  V30 2 2 2 3
M  V30 3 1 2 4
M  V30 4 1 4 5
M  V30 5 1 5 6
M  V30 6 2 6 7
M  V30 7 1 6 8
M  V30 8 1 8 9 CFG=1
M  V30 9 1 8 10
M  V30 10 1 10 11
M  V30 11 1 11 12
M  V30 12 1 12 13
M  V30 13 1 13 14
M  V30 14 1 14 15
M  V30 15 1 15 16
M  V30 16 2 16 17
M  V30 17 1 17 18
M  V30 18 2 18 19
M  V30 19 1 18 20
M  V30 20 2 20 21
M  V30 21 1 21 22
M  V30 22 1 22 23 CFG=3
M  V30 23 1 22 24
M  V30 24 1 24 25
M  V30 25 1 25 26
M  V30 26 1 25 27
M  V30 27 1 27 28
M  V30 28 1 28 29 CFG=3
M  V30 29 1 28 8
M  V30 30 1 28 12
M  V30 31 1 24 13
M  V30 32 1 22 16
M  V30 33 1 1 30
M  V30 34 1 1 31
M  V30 35 1 1 32
M  V30 36 1 5 33
M  V30 37 1 5 34
M  V30 38 1 9 35
M  V30 39 1 10 36
M  V30 40 1 10 37
M  V30 41 1 11 38
M  V30 42 1 11 39
M  V30 43 1 12 40 CFG=1
M  V30 44 1 13 41 CFG=3
M  V30 45 1 14 42
M  V30 46 1 14 43
M  V30 47 1 15 44
M  V30 48 1 15 45
M  V30 49 1 17 46
M  V30 50 1 20 47
M  V30 51 1 21 48
M  V30 52 1 23 49
M  V30 53 1 23 50
M  V30 54 1 23 51
M  V30 55 1 24 52 CFG=1
M  V30 56 1 25 53 CFG=3
M  V30 57 1 26 54
M  V30 58 1 27 55
M  V30 59 1 27 56
M  V30 60 1 29 57
M  V30 61 1 29 58
M  V30 62 1 29 59
M  V30 END BOND
M  V30 END CTAB
M  END
>  <Dataset>  (796) 
OralDrugs

>  <Ligand_Instance>  (796) 
nan

>  <PDB_ID>  (796) 
nan

>  <Standardized_SMILES>  (796) 
CC(=O)OCC(=O)[C@@]1(O)CC[C@H]2[C@@H]3CCC4=CC(=O)C=C[C@]4(C)[C@H]3[C@@H](O)C[C@@]21C

>  <Name>  (796) 
Prednisolone Acetate

>  <Pocket>  (796) 
nan

>  <ATP_Site>  (796) 
nan

>  <Peripheral>  (796) 
nan

>  <Num_H_Atoms_ProtBoundConf>  (796) 
nan

>  <Num_Resolved_Atoms>  (796) 
nan

>  <Num_Not_Resolved_Atoms>  (796) 
nan

$$$$
CHEMBL1201231
     RDKit          3D

  0  0  0  0  0  0  0  0  0  0999 V3000
M  V30 BEGIN CTAB
M  V30 COUNTS 59 62 0 0 0
M  V30 BEGIN ATOM
M  V30 1 C 0.955601 2.076723 2.428203 0
M  V30 2 C 0.123580 1.041139 3.129768 0 CFG=2
M  V30 3 C -0.956179 1.739764 3.873439 0
M  V30 4 C -1.083186 1.709142 5.192531 0
M  V30 5 C -0.118850 0.951482 5.987046 0
M  V30 6 O -0.259964 0.937992 7.229416 0
M  V30 7 C 0.972612 0.234281 5.353071 0
M  V30 8 C 1.033625 0.309667 4.056646 0
M  V30 9 C 2.112980 -0.387047 3.270312 0
M  V30 10 C 1.379125 -1.501850 2.513326 0
M  V30 11 C 0.510395 -0.820193 1.494800 0 CFG=2
M  V30 12 C -0.520096 0.057710 2.223761 0 CFG=2
M  V30 13 C -1.536671 0.657433 1.330032 0 CFG=1
M  V30 14 O -1.223340 1.971945 0.925091 0
M  V30 15 C -1.975618 -0.135453 0.162742 0
M  V30 16 C -0.901653 -1.001781 -0.446055 0 CFG=1
M  V30 17 C 0.115971 -0.135799 -1.117248 0
M  V30 18 C -0.344406 -1.752044 0.761411 0 CFG=1
M  V30 19 C 0.232142 -2.954659 0.109940 0
M  V30 20 C -1.090113 -3.402697 -0.543765 0
M  V30 21 C -1.425929 -2.118089 -1.279278 0 CFG=1
M  V30 22 O -2.836945 -1.988854 -1.271752 0
M  V30 23 C -0.967547 -2.107916 -2.659051 0
M  V30 24 O -1.670161 -1.969176 -3.656697 0
M  V30 25 C 0.226995 -2.220666 -3.470457 0
M  V30 26 O -0.033093 -2.118614 -4.847106 0
M  V30 27 P 1.435628 -2.266619 -5.671606 0
M  V30 28 O 1.408279 -1.553926 -6.997334 0
M  V30 29 O 2.703772 -1.571103 -4.768486 0
M  V30 30 O 1.850775 -3.882893 -5.954108 0
M  V30 31 H 1.361718 1.778734 1.462430 0
M  V30 32 H 1.847835 2.342291 3.059107 0
M  V30 33 H 0.392200 3.052642 2.373605 0
M  V30 34 H -1.667513 2.297295 3.301047 0
M  V30 35 H -1.892794 2.237391 5.702844 0
M  V30 36 H 1.704979 -0.336678 5.907332 0
M  V30 37 H 2.869067 -0.848911 3.929155 0
M  V30 38 H 2.543026 0.283834 2.512183 0
M  V30 39 H 2.147197 -2.077286 1.987502 0
M  V30 40 H 0.796783 -2.141725 3.187228 0
M  V30 41 H 1.121433 -0.159967 0.879958 0
M  V30 42 H -1.046721 -0.682239 2.894801 0
M  V30 43 H -2.460679 0.805917 1.966374 0
M  V30 44 H -2.002690 2.533546 0.776329 0
M  V30 45 H -2.300552 0.563849 -0.661692 0
M  V30 46 H -2.858506 -0.782109 0.346797 0
M  V30 47 H 1.129421 -0.530895 -1.125153 0
M  V30 48 H 0.156305 0.859880 -0.597078 0
M  V30 49 H -0.209994 0.099843 -2.137812 0
M  V30 50 H -1.228451 -2.086109 1.356821 0
M  V30 51 H 0.887389 -2.683594 -0.723994 0
M  V30 52 H 0.640518 -3.722850 0.770322 0
M  V30 53 H -1.807001 -3.475269 0.298911 0
M  V30 54 H -0.996917 -4.283033 -1.153888 0
M  V30 55 H -3.251103 -2.557855 -1.970452 0
M  V30 56 H 1.064759 -1.564776 -3.275035 0
M  V30 57 H 0.635213 -3.268791 -3.357825 0
M  V30 58 H 2.921381 -2.100802 -3.963059 0
M  V30 59 H 2.054840 -4.365163 -5.095802 0
M  V30 END ATOM
M  V30 BEGIN BOND
M  V30 1 1 2 1 CFG=3
M  V30 2 1 2 3
M  V30 3 2 3 4
M  V30 4 1 4 5
M  V30 5 2 5 6
M  V30 6 1 5 7
M  V30 7 2 7 8
M  V30 8 1 8 9
M  V30 9 1 9 10
M  V30 10 1 10 11
M  V30 11 1 11 12
M  V30 12 1 12 13
M  V30 13 1 13 14
M  V30 14 1 13 15
M  V30 15 1 15 16
M  V30 16 1 16 17 CFG=3
M  V30 17 1 16 18
M  V30 18 1 18 19
M  V30 19 1 19 20
M  V30 20 1 20 21
M  V30 21 1 21 22 CFG=3
M  V30 22 1 21 23
M  V30 23 2 23 24
M  V30 24 1 23 25
M  V30 25 1 25 26
M  V30 26 1 26 27
M  V30 27 2 27 28
M  V30 28 1 27 29
M  V30 29 1 27 30
M  V30 30 1 8 2
M  V30 31 1 18 11
M  V30 32 1 12 2
M  V30 33 1 21 16
M  V30 34 1 1 31
M  V30 35 1 1 32
M  V30 36 1 1 33
M  V30 37 1 3 34
M  V30 38 1 4 35
M  V30 39 1 7 36
M  V30 40 1 9 37
M  V30 41 1 9 38
M  V30 42 1 10 39
M  V30 43 1 10 40
M  V30 44 1 11 41 CFG=3
M  V30 45 1 12 42 CFG=1
M  V30 46 1 13 43 CFG=1
M  V30 47 1 14 44
M  V30 48 1 15 45
M  V30 49 1 15 46
M  V30 50 1 17 47
M  V30 51 1 17 48
M  V30 52 1 17 49
M  V30 53 1 18 50 CFG=1
M  V30 54 1 19 51
M  V30 55 1 19 52
M  V30 56 1 20 53
M  V30 57 1 20 54
M  V30 58 1 22 55
M  V30 59 1 25 56
M  V30 60 1 25 57
M  V30 61 1 29 58
M  V30 62 1 30 59
M  V30 END BOND
M  V30 END CTAB
M  END
>  <Dataset>  (797) 
OralDrugs

>  <Ligand_Instance>  (797) 
nan

>  <PDB_ID>  (797) 
nan

>  <Standardized_SMILES>  (797) 
C[C@]12C=CC(=O)C=C1CC[C@@H]1[C@@H]2[C@@H](O)C[C@@]2(C)[C@H]1CC[C@]2(O)C(=O)COP(=O)(O)O

>  <Name>  (797) 
Prednisolone Phosphoric Acid

>  <Pocket>  (797) 
nan

>  <ATP_Site>  (797) 
nan

>  <Peripheral>  (797) 
nan

>  <Num_H_Atoms_ProtBoundConf>  (797) 
nan

>  <Num_Resolved_Atoms>  (797) 
nan

>  <Num_Not_Resolved_Atoms>  (797) 
nan

$$$$
CHEMBL1059
     RDKit          3D

  0  0  0  0  0  0  0  0  0  0999 V3000
M  V30 BEGIN CTAB
M  V30 COUNTS 28 27 0 0 0
M  V30 BEGIN ATOM
M  V30 1 C 0.010402 2.018452 2.236472 0
M  V30 2 C -0.313169 0.504427 2.138340 0
M  V30 3 C 0.673588 -0.143739 3.080012 0
M  V30 4 C -0.120484 0.151098 0.711955 0
M  V30 5 C -0.378513 -1.231222 0.267982 0 CFG=2
M  V30 6 C 0.434932 -2.318604 0.886989 0
M  V30 7 N 0.089040 -3.607756 0.353585 0
M  V30 8 C -0.268445 -1.296889 -1.260852 0
M  V30 9 C 1.064334 -0.899547 -1.734402 0
M  V30 10 O 1.035035 -0.991794 -2.996199 0
M  V30 11 O 2.284611 -0.475666 -1.252711 0
M  V30 12 H -0.409874 2.352979 3.205502 0
M  V30 13 H -0.471668 2.578096 1.434520 0
M  V30 14 H 1.096215 2.142186 2.255053 0
M  V30 15 H -1.366538 0.379874 2.457875 0
M  V30 16 H 1.119224 0.644366 3.754629 0
M  V30 17 H 1.519827 -0.542750 2.525894 0
M  V30 18 H 0.129116 -0.863607 3.730394 0
M  V30 19 H -0.786663 0.850566 0.120908 0
M  V30 20 H 0.926460 0.446794 0.410957 0
M  V30 21 H -1.450061 -1.474990 0.480280 0
M  V30 22 H 0.160074 -2.390360 1.975231 0
M  V30 23 H 1.518362 -2.205460 0.831970 0
M  V30 24 H -0.025030 -4.353936 1.032100 0
M  V30 25 H 0.474088 -3.823979 -0.569476 0
M  V30 26 H -1.015343 -0.575096 -1.649111 0
M  V30 27 H -0.543913 -2.330128 -1.556449 0
M  V30 28 H 2.819997 0.203697 -1.768837 0
M  V30 END ATOM
M  V30 BEGIN BOND
M  V30 1 1 1 2
M  V30 2 1 2 3
M  V30 3 1 2 4
M  V30 4 1 4 5
M  V30 5 1 5 6
M  V30 6 1 6 7
M  V30 7 1 5 8
M  V30 8 1 8 9
M  V30 9 2 9 10
M  V30 10 1 9 11
M  V30 11 1 1 12
M  V30 12 1 1 13
M  V30 13 1 1 14
M  V30 14 1 2 15
M  V30 15 1 3 16
M  V30 16 1 3 17
M  V30 17 1 3 18
M  V30 18 1 4 19
M  V30 19 1 4 20
M  V30 20 1 5 21 CFG=3
M  V30 21 1 6 22
M  V30 22 1 6 23
M  V30 23 1 7 24
M  V30 24 1 7 25
M  V30 25 1 8 26
M  V30 26 1 8 27
M  V30 27 1 11 28
M  V30 END BOND
M  V30 END CTAB
M  END
>  <Dataset>  (798) 
OralDrugs

>  <Ligand_Instance>  (798) 
nan

>  <PDB_ID>  (798) 
nan

>  <Standardized_SMILES>  (798) 
CC(C)C[C@H](CN)CC(=O)O

>  <Name>  (798) 
Pregabalin

>  <Pocket>  (798) 
nan

>  <ATP_Site>  (798) 
nan

>  <Peripheral>  (798) 
nan

>  <Num_H_Atoms_ProtBoundConf>  (798) 
nan

>  <Num_Resolved_Atoms>  (798) 
nan

>  <Num_Not_Resolved_Atoms>  (798) 
nan

$$$$
CHEMBL227875
     RDKit          3D

  0  0  0  0  0  0  0  0  0  0999 V3000
M  V30 BEGIN CTAB
M  V30 COUNTS 37 39 0 0 0
M  V30 BEGIN ATOM
M  V30 1 O 1.890934 -4.119570 5.036805 0
M  V30 2 N 1.152122 -3.885899 4.081597 0 CHG=1 VAL=4
M  V30 3 O -0.146417 -4.223182 4.344653 0 CHG=-1 VAL=1
M  V30 4 C 1.623261 -3.328650 2.857108 0
M  V30 5 C 0.751101 -3.080524 1.801437 0
M  V30 6 N 1.466728 -2.554785 0.774091 0
M  V30 7 C 2.750161 -2.475405 1.173492 0
M  V30 8 N 2.860826 -2.947069 2.450281 0
M  V30 9 O 3.710266 -1.967236 0.307075 0
M  V30 10 C 3.328811 -1.623419 -1.013051 0
M  V30 11 C 1.962662 -0.976289 -0.912704 0 CFG=1
M  V30 12 O 1.586381 -0.271985 -1.987622 0
M  V30 13 C 1.319252 1.049569 -1.686684 0
M  V30 14 C 0.235936 1.281447 -0.722243 0
M  V30 15 C -1.057514 1.285873 -1.265282 0
M  V30 16 C -2.224417 1.496657 -0.564245 0
M  V30 17 C -2.125312 1.724726 0.792801 0
M  V30 18 O -3.208781 1.952611 1.630683 0
M  V30 19 C -3.864533 0.874909 2.275153 0
M  V30 20 F -4.384893 -0.024477 1.340960 0
M  V30 21 F -4.919115 1.408097 3.016742 0
M  V30 22 F -3.044777 0.171162 3.106275 0
M  V30 23 C -0.876297 1.731350 1.378163 0
M  V30 24 C 0.264396 1.515707 0.635952 0
M  V30 25 C 1.025017 -2.127279 -0.544122 0
M  V30 26 H -0.319606 -3.261805 1.766967 0
M  V30 27 H 4.076206 -1.007853 -1.526629 0
M  V30 28 H 3.178406 -2.583753 -1.576209 0
M  V30 29 H 1.993711 -0.358279 -0.002479 0
M  V30 30 H 2.216766 1.568550 -1.271243 0
M  V30 31 H 1.042620 1.562976 -2.649247 0
M  V30 32 H -1.220470 1.112791 -2.333677 0
M  V30 33 H -3.186707 1.491405 -1.017471 0
M  V30 34 H -0.719877 1.903502 2.438173 0
M  V30 35 H 1.233248 1.533697 1.089056 0
M  V30 36 H 1.251318 -2.986966 -1.226638 0
M  V30 37 H -0.023762 -1.817028 -0.554945 0
M  V30 END ATOM
M  V30 BEGIN BOND
M  V30 1 2 1 2
M  V30 2 1 2 3
M  V30 3 1 2 4
M  V30 4 2 4 5
M  V30 5 1 5 6
M  V30 6 1 6 7
M  V30 7 2 7 8
M  V30 8 1 7 9
M  V30 9 1 9 10
M  V30 10 1 10 11
M  V30 11 1 11 12
M  V30 12 1 12 13
M  V30 13 1 13 14
M  V30 14 2 14 15
M  V30 15 1 15 16
M  V30 16 2 16 17
M  V30 17 1 17 18
M  V30 18 1 18 19
M  V30 19 1 19 20
M  V30 20 1 19 21
M  V30 21 1 19 22
M  V30 22 1 17 23
M  V30 23 2 23 24
M  V30 24 1 11 25
M  V30 25 1 8 4
M  V30 26 1 24 14
M  V30 27 1 25 6
M  V30 28 1 5 26
M  V30 29 1 10 27
M  V30 30 1 10 28
M  V30 31 1 11 29 CFG=1
M  V30 32 1 13 30
M  V30 33 1 13 31
M  V30 34 1 15 32
M  V30 35 1 16 33
M  V30 36 1 23 34
M  V30 37 1 24 35
M  V30 38 1 25 36
M  V30 39 1 25 37
M  V30 END BOND
M  V30 END CTAB
M  END
>  <Dataset>  (799) 
OralDrugs

>  <Ligand_Instance>  (799) 
nan

>  <PDB_ID>  (799) 
nan

>  <Standardized_SMILES>  (799) 
O=[N+]([O-])c1cn2c(n1)OC[C@@H](OCc1ccc(OC(F)(F)F)cc1)C2

>  <Name>  (799) 
Pretomanid

>  <Pocket>  (799) 
nan

>  <ATP_Site>  (799) 
nan

>  <Peripheral>  (799) 
nan

>  <Num_H_Atoms_ProtBoundConf>  (799) 
nan

>  <Num_Resolved_Atoms>  (799) 
nan

>  <Num_Not_Resolved_Atoms>  (799) 
nan

$$$$
CHEMBL506
     RDKit          3D

  0  0  0  0  0  0  0  0  0  0999 V3000
M  V30 BEGIN CTAB
M  V30 COUNTS 40 41 0 0 0
M  V30 BEGIN ATOM
M  V30 1 C -3.359751 -2.078234 1.501568 0
M  V30 2 O -3.091997 -0.915513 2.241505 0
M  V30 3 C -1.814458 -0.381165 2.194966 0
M  V30 4 C -0.788543 -0.933294 1.457494 0
M  V30 5 C 0.492048 -0.461550 1.364672 0
M  V30 6 N 1.528207 -1.050244 0.621000 0
M  V30 7 C 1.573533 -2.194711 -0.226787 0
M  V30 8 C 1.113500 -3.375407 0.663564 0
M  V30 9 C 0.796028 -2.121901 -1.458531 0
M  V30 10 C 1.023669 -1.138865 -2.519419 0
M  V30 11 C 0.862972 0.312639 -2.237680 0
M  V30 12 N 1.729376 0.902301 -1.290588 0
M  V30 13 C 0.703609 0.691634 2.116894 0
M  V30 14 N 1.929892 1.259131 2.111047 0
M  V30 15 C 2.186874 2.371998 2.819177 0
M  V30 16 C 1.255471 3.023202 3.595990 0
M  V30 17 C 0.014395 2.423438 3.583762 0
M  V30 18 C -0.272310 1.289653 2.870657 0
M  V30 19 C -1.523885 0.748042 2.903342 0
M  V30 20 H -2.623983 -2.898324 1.728156 0
M  V30 21 H -4.362386 -2.431675 1.774102 0
M  V30 22 H -3.243349 -1.862123 0.421009 0
M  V30 23 H -1.079317 -1.826015 0.933305 0
M  V30 24 H 2.474658 -0.570094 0.739495 0
M  V30 25 H 2.661072 -2.455919 -0.484278 0
M  V30 26 H 0.956339 -3.079925 1.700847 0
M  V30 27 H 1.851031 -4.195629 0.663411 0
M  V30 28 H 0.142172 -3.783204 0.281978 0
M  V30 29 H -0.332726 -2.065407 -1.239755 0
M  V30 30 H 0.826983 -3.196859 -1.895372 0
M  V30 31 H 0.248138 -1.358594 -3.339569 0
M  V30 32 H 1.984709 -1.333657 -3.095239 0
M  V30 33 H 0.852748 0.928879 -3.173574 0
M  V30 34 H -0.194104 0.420565 -1.814977 0
M  V30 35 H 1.296994 1.683176 -0.761135 0
M  V30 36 H 2.701652 1.049164 -1.593185 0
M  V30 37 H 3.210037 2.718577 2.723724 0
M  V30 38 H 1.509464 3.915477 4.147693 0
M  V30 39 H -0.780027 2.880585 4.176184 0
M  V30 40 H -2.255254 1.241404 3.500375 0
M  V30 END ATOM
M  V30 BEGIN BOND
M  V30 1 1 1 2
M  V30 2 1 2 3
M  V30 3 2 3 4
M  V30 4 1 4 5
M  V30 5 1 5 6
M  V30 6 1 6 7
M  V30 7 1 7 8
M  V30 8 1 7 9
M  V30 9 1 9 10
M  V30 10 1 10 11
M  V30 11 1 11 12
M  V30 12 2 5 13
M  V30 13 1 13 14
M  V30 14 2 14 15
M  V30 15 1 15 16
M  V30 16 2 16 17
M  V30 17 1 17 18
M  V30 18 2 18 19
M  V30 19 1 19 3
M  V30 20 1 18 13
M  V30 21 1 1 20
M  V30 22 1 1 21
M  V30 23 1 1 22
M  V30 24 1 4 23
M  V30 25 1 6 24
M  V30 26 1 7 25
M  V30 27 1 8 26
M  V30 28 1 8 27
M  V30 29 1 8 28
M  V30 30 1 9 29
M  V30 31 1 9 30
M  V30 32 1 10 31
M  V30 33 1 10 32
M  V30 34 1 11 33
M  V30 35 1 11 34
M  V30 36 1 12 35
M  V30 37 1 12 36
M  V30 38 1 15 37
M  V30 39 1 16 38
M  V30 40 1 17 39
M  V30 41 1 19 40
M  V30 END BOND
M  V30 END CTAB
M  END
>  <Dataset>  (800) 
OralDrugs

>  <Ligand_Instance>  (800) 
nan

>  <PDB_ID>  (800) 
nan

>  <Standardized_SMILES>  (800) 
COc1cc(NC(C)CCCN)c2ncccc2c1

>  <Name>  (800) 
Primaquine

>  <Pocket>  (800) 
nan

>  <ATP_Site>  (800) 
nan

>  <Peripheral>  (800) 
nan

>  <Num_H_Atoms_ProtBoundConf>  (800) 
nan

>  <Num_Resolved_Atoms>  (800) 
nan

>  <Num_Not_Resolved_Atoms>  (800) 
nan

$$$$
CHEMBL856
     RDKit          3D

  0  0  0  0  0  0  0  0  0  0999 V3000
M  V30 BEGIN CTAB
M  V30 COUNTS 30 31 0 0 0
M  V30 BEGIN ATOM
M  V30 1 C -2.433588 -0.357009 1.424674 0
M  V30 2 C -1.752381 0.051517 0.137402 0
M  V30 3 C -0.265376 0.116240 0.409647 0
M  V30 4 C 0.157038 -1.231872 0.842468 0
M  V30 5 C 0.503640 -1.662297 2.104029 0
M  V30 6 C 0.877283 -2.960053 2.345605 0
M  V30 7 C 0.925381 -3.913171 1.322282 0
M  V30 8 C 0.579860 -3.490433 0.056162 0
M  V30 9 C 0.207257 -2.190708 -0.177272 0
M  V30 10 C 0.498412 0.390192 -0.849851 0
M  V30 11 O 0.077159 0.440464 -2.031101 0
M  V30 12 N 1.891185 0.630326 -0.729834 0
M  V30 13 C 2.505444 1.076107 0.513365 0
M  V30 14 N 1.502790 1.427812 1.492092 0
M  V30 15 C 0.089542 1.197704 1.348405 0
M  V30 16 O -0.567805 2.003151 2.086191 0
M  V30 17 H -2.357903 0.500631 2.129490 0
M  V30 18 H -1.907758 -1.228905 1.833033 0
M  V30 19 H -3.505893 -0.633097 1.248057 0
M  V30 20 H -1.921102 -0.756470 -0.589574 0
M  V30 21 H -2.108063 1.024920 -0.239877 0
M  V30 22 H 0.450066 -0.888642 2.857650 0
M  V30 23 H 1.142860 -3.258959 3.353652 0
M  V30 24 H 1.225948 -4.921459 1.564473 0
M  V30 25 H 0.607458 -4.209406 -0.761932 0
M  V30 26 H -0.049072 -1.943194 -1.205206 0
M  V30 27 H 2.599641 0.521254 -1.478565 0
M  V30 28 H 3.082777 2.015081 0.298021 0
M  V30 29 H 3.212535 0.348521 0.932582 0
M  V30 30 H 1.935541 1.884613 2.346838 0
M  V30 END ATOM
M  V30 BEGIN BOND
M  V30 1 1 1 2
M  V30 2 1 2 3
M  V30 3 1 3 4
M  V30 4 2 4 5
M  V30 5 1 5 6
M  V30 6 2 6 7
M  V30 7 1 7 8
M  V30 8 2 8 9
M  V30 9 1 3 10
M  V30 10 2 10 11
M  V30 11 1 10 12
M  V30 12 1 12 13
M  V30 13 1 13 14
M  V30 14 1 14 15
M  V30 15 2 15 16
M  V30 16 1 15 3
M  V30 17 1 9 4
M  V30 18 1 1 17
M  V30 19 1 1 18
M  V30 20 1 1 19
M  V30 21 1 2 20
M  V30 22 1 2 21
M  V30 23 1 5 22
M  V30 24 1 6 23
M  V30 25 1 7 24
M  V30 26 1 8 25
M  V30 27 1 9 26
M  V30 28 1 12 27
M  V30 29 1 13 28
M  V30 30 1 13 29
M  V30 31 1 14 30
M  V30 END BOND
M  V30 END CTAB
M  END
>  <Dataset>  (801) 
OralDrugs

>  <Ligand_Instance>  (801) 
nan

>  <PDB_ID>  (801) 
nan

>  <Standardized_SMILES>  (801) 
CCC1(c2ccccc2)C(=O)NCNC1=O

>  <Name>  (801) 
Primidone

>  <Pocket>  (801) 
nan

>  <ATP_Site>  (801) 
nan

>  <Peripheral>  (801) 
nan

>  <Num_H_Atoms_ProtBoundConf>  (801) 
nan

>  <Num_Resolved_Atoms>  (801) 
nan

>  <Num_Not_Resolved_Atoms>  (801) 
nan

$$$$
CHEMBL897
     RDKit          3D

  0  0  0  0  0  0  0  0  0  0999 V3000
M  V30 BEGIN CTAB
M  V30 COUNTS 38 38 0 0 0
M  V30 BEGIN ATOM
M  V30 1 C -0.083958 -2.634583 2.815855 0
M  V30 2 C -1.001275 -3.335336 1.848535 0
M  V30 3 C -1.938050 -2.427973 1.147597 0
M  V30 4 N -1.396878 -1.393003 0.351145 0
M  V30 5 C -0.594860 -1.767390 -0.731612 0
M  V30 6 C -1.243841 -1.728644 -2.080719 0
M  V30 7 C -1.746834 -0.392824 -2.524924 0
M  V30 8 S -1.314521 0.140797 0.995759 0
M  V30 9 O -2.108407 0.146561 2.300840 0
M  V30 10 O -2.018726 1.133593 0.119275 0
M  V30 11 C 0.300387 0.739390 1.303811 0
M  V30 12 C 0.914862 1.364506 0.209812 0
M  V30 13 C 2.182876 1.910056 0.248855 0
M  V30 14 C 2.900071 1.844089 1.426463 0
M  V30 15 C 4.244218 2.408013 1.512343 0
M  V30 16 O 4.748836 2.958121 0.500631 0
M  V30 17 O 4.952045 2.333740 2.702819 0
M  V30 18 C 2.312248 1.232602 2.514745 0
M  V30 19 C 1.044672 0.690697 2.465108 0
M  V30 20 H 0.412977 -3.368724 3.492728 0
M  V30 21 H 0.704704 -2.144478 2.199309 0
M  V30 22 H -0.649339 -1.882874 3.376570 0
M  V30 23 H -0.395685 -3.973170 1.170978 0
M  V30 24 H -1.581949 -4.080222 2.467048 0
M  V30 25 H -2.575089 -1.937161 1.940287 0
M  V30 26 H -2.657327 -3.008820 0.536077 0
M  V30 27 H 0.272828 -1.046694 -0.771249 0
M  V30 28 H -0.104250 -2.761684 -0.645425 0
M  V30 29 H -2.120203 -2.443010 -2.050140 0
M  V30 30 H -0.559444 -2.158175 -2.874705 0
M  V30 31 H -1.050720 0.431193 -2.313267 0
M  V30 32 H -2.759874 -0.161901 -2.144647 0
M  V30 33 H -1.898361 -0.441132 -3.652410 0
M  V30 34 H 0.432413 1.461591 -0.743324 0
M  V30 35 H 2.639562 2.386764 -0.601644 0
M  V30 36 H 5.871178 2.738140 2.829904 0
M  V30 37 H 2.820152 1.146975 3.468805 0
M  V30 38 H 0.520281 0.199837 3.270943 0
M  V30 END ATOM
M  V30 BEGIN BOND
M  V30 1 1 1 2
M  V30 2 1 2 3
M  V30 3 1 3 4
M  V30 4 1 4 5
M  V30 5 1 5 6
M  V30 6 1 6 7
M  V30 7 1 4 8
M  V30 8 2 8 9
M  V30 9 2 8 10
M  V30 10 1 8 11
M  V30 11 2 11 12
M  V30 12 1 12 13
M  V30 13 2 13 14
M  V30 14 1 14 15
M  V30 15 2 15 16
M  V30 16 1 15 17
M  V30 17 1 14 18
M  V30 18 2 18 19
M  V30 19 1 19 11
M  V30 20 1 1 20
M  V30 21 1 1 21
M  V30 22 1 1 22
M  V30 23 1 2 23
M  V30 24 1 2 24
M  V30 25 1 3 25
M  V30 26 1 3 26
M  V30 27 1 5 27
M  V30 28 1 5 28
M  V30 29 1 6 29
M  V30 30 1 6 30
M  V30 31 1 7 31
M  V30 32 1 7 32
M  V30 33 1 7 33
M  V30 34 1 12 34
M  V30 35 1 13 35
M  V30 36 1 17 36
M  V30 37 1 18 37
M  V30 38 1 19 38
M  V30 END BOND
M  V30 END CTAB
M  END
>  <Dataset>  (802) 
OralDrugs

>  <Ligand_Instance>  (802) 
nan

>  <PDB_ID>  (802) 
nan

>  <Standardized_SMILES>  (802) 
CCCN(CCC)S(=O)(=O)c1ccc(C(=O)O)cc1

>  <Name>  (802) 
Probenecid

>  <Pocket>  (802) 
nan

>  <ATP_Site>  (802) 
nan

>  <Peripheral>  (802) 
nan

>  <Num_H_Atoms_ProtBoundConf>  (802) 
nan

>  <Num_Resolved_Atoms>  (802) 
nan

>  <Num_Not_Resolved_Atoms>  (802) 
nan

$$$$
CHEMBL640
     RDKit          3D

  0  0  0  0  0  0  0  0  0  0999 V3000
M  V30 BEGIN CTAB
M  V30 COUNTS 38 38 0 0 0
M  V30 BEGIN ATOM
M  V30 1 C -1.206885 -3.301697 3.226363 0
M  V30 2 C -0.031463 -3.508681 2.299283 0
M  V30 3 N -0.308432 -2.738653 1.027696 0
M  V30 4 C -1.415929 -3.481536 0.422730 0
M  V30 5 C -2.034215 -2.919439 -0.789681 0
M  V30 6 C 0.866641 -2.977875 0.172665 0
M  V30 7 C 0.924751 -1.960924 -0.931183 0
M  V30 8 N 0.986168 -0.662295 -0.260619 0
M  V30 9 C 1.053184 0.637307 -0.816738 0
M  V30 10 O 1.060783 0.691630 -2.074791 0
M  V30 11 C 1.109952 1.872572 -0.047085 0
M  V30 12 C 1.138183 3.048229 -0.764392 0
M  V30 13 C 1.197013 4.277563 -0.111280 0
M  V30 14 C 1.231259 4.365593 1.286070 0
M  V30 15 N 1.297435 5.594775 2.011579 0
M  V30 16 C 1.200891 3.146095 1.953418 0
M  V30 17 C 1.141686 1.906322 1.335842 0
M  V30 18 H -1.889070 -2.538349 2.845284 0
M  V30 19 H -1.770939 -4.267643 3.394459 0
M  V30 20 H -0.807608 -3.028476 4.247252 0
M  V30 21 H 0.921675 -3.184896 2.712782 0
M  V30 22 H -0.020582 -4.557606 1.969806 0
M  V30 23 H -2.193339 -3.646798 1.220447 0
M  V30 24 H -1.069987 -4.542023 0.197525 0
M  V30 25 H -3.158292 -3.139172 -0.748917 0
M  V30 26 H -1.673958 -3.442494 -1.725590 0
M  V30 27 H -1.984913 -1.839571 -0.923146 0
M  V30 28 H 0.719015 -4.013509 -0.233960 0
M  V30 29 H 1.798835 -2.934993 0.756440 0
M  V30 30 H 1.913407 -2.154156 -1.447906 0
M  V30 31 H 0.176237 -2.037561 -1.705509 0
M  V30 32 H 0.984075 -0.617596 0.801440 0
M  V30 33 H 1.118040 3.160985 -1.846647 0
M  V30 34 H 1.216542 5.217180 -0.632776 0
M  V30 35 H 0.334595 5.761195 2.417319 0
M  V30 36 H 2.304184 5.903016 1.881884 0
M  V30 37 H 1.224106 3.092192 3.042518 0
M  V30 38 H 1.121674 1.000155 1.919597 0
M  V30 END ATOM
M  V30 BEGIN BOND
M  V30 1 1 1 2
M  V30 2 1 2 3
M  V30 3 1 3 4
M  V30 4 1 4 5
M  V30 5 1 3 6
M  V30 6 1 6 7
M  V30 7 1 7 8
M  V30 8 1 8 9
M  V30 9 2 9 10
M  V30 10 1 9 11
M  V30 11 2 11 12
M  V30 12 1 12 13
M  V30 13 2 13 14
M  V30 14 1 14 15
M  V30 15 1 14 16
M  V30 16 2 16 17
M  V30 17 1 17 11
M  V30 18 1 1 18
M  V30 19 1 1 19
M  V30 20 1 1 20
M  V30 21 1 2 21
M  V30 22 1 2 22
M  V30 23 1 4 23
M  V30 24 1 4 24
M  V30 25 1 5 25
M  V30 26 1 5 26
M  V30 27 1 5 27
M  V30 28 1 6 28
M  V30 29 1 6 29
M  V30 30 1 7 30
M  V30 31 1 7 31
M  V30 32 1 8 32
M  V30 33 1 12 33
M  V30 34 1 13 34
M  V30 35 1 15 35
M  V30 36 1 15 36
M  V30 37 1 16 37
M  V30 38 1 17 38
M  V30 END BOND
M  V30 END CTAB
M  END
>  <Dataset>  (803) 
OralDrugs

>  <Ligand_Instance>  (803) 
nan

>  <PDB_ID>  (803) 
nan

>  <Standardized_SMILES>  (803) 
CCN(CC)CCNC(=O)c1ccc(N)cc1

>  <Name>  (803) 
Procainamide

>  <Pocket>  (803) 
nan

>  <ATP_Site>  (803) 
nan

>  <Peripheral>  (803) 
nan

>  <Num_H_Atoms_ProtBoundConf>  (803) 
nan

>  <Num_Resolved_Atoms>  (803) 
nan

>  <Num_Not_Resolved_Atoms>  (803) 
nan

$$$$
CHEMBL728
     RDKit          3D

  0  0  0  0  0  0  0  0  0  0999 V3000
M  V30 BEGIN CTAB
M  V30 COUNTS 49 52 0 0 0
M  V30 BEGIN ATOM
M  V30 1 C 0.154663 -5.384112 2.313559 0
M  V30 2 N -0.805730 -4.974363 1.334854 0
M  V30 3 C -0.262422 -4.332658 0.173281 0
M  V30 4 C -0.895257 -2.976192 -0.117682 0
M  V30 5 N -0.713276 -2.074403 1.016440 0
M  V30 6 C 0.581313 -1.504407 0.906881 0
M  V30 7 C 0.972283 -0.534475 1.989936 0
M  V30 8 C 0.083230 0.690292 2.060750 0
M  V30 9 N 0.189952 1.400917 0.820184 0
M  V30 10 C 1.390778 2.085361 0.581316 0
M  V30 11 C 2.366479 2.174876 1.552507 0
M  V30 12 C 3.559070 2.857912 1.434817 0
M  V30 13 C 3.844305 3.533932 0.244130 0
M  V30 14 C 2.902644 3.477906 -0.758510 0
M  V30 15 C 1.753878 2.776341 -0.547546 0
M  V30 16 S 0.636001 2.809525 -1.936565 0
M  V30 17 C -0.829499 1.947358 -1.408322 0
M  V30 18 C -1.827048 1.933079 -2.314712 0
M  V30 19 C -3.000657 1.279568 -2.003333 0
M  V30 20 C -3.111842 0.668671 -0.785749 0
M  V30 21 Cl -4.608088 -0.148620 -0.423850 0
M  V30 22 C -2.037402 0.739195 0.071958 0
M  V30 23 C -0.832819 1.369548 -0.160109 0
M  V30 24 C -0.996929 -2.764444 2.230389 0
M  V30 25 C -1.745865 -4.074821 1.973685 0
M  V30 26 H 1.005454 -4.689089 2.457815 0
M  V30 27 H 0.577152 -6.388777 2.177575 0
M  V30 28 H -0.366713 -5.388127 3.313076 0
M  V30 29 H 0.839411 -4.206011 0.252111 0
M  V30 30 H -0.456200 -4.963670 -0.717688 0
M  V30 31 H -1.936093 -3.085267 -0.432410 0
M  V30 32 H -0.327033 -2.552599 -0.974129 0
M  V30 33 H 0.575989 -0.896822 -0.045344 0
M  V30 34 H 1.399841 -2.215670 0.772995 0
M  V30 35 H 2.034027 -0.352037 1.869617 0
M  V30 36 H 0.870981 -1.093655 2.973875 0
M  V30 37 H 0.413638 1.311644 2.932465 0
M  V30 38 H -0.893430 0.311691 2.338267 0
M  V30 39 H 2.309902 1.752385 2.523709 0
M  V30 40 H 4.337674 2.941810 2.178781 0
M  V30 41 H 4.764908 4.080252 0.109738 0
M  V30 42 H 3.145269 4.007029 -1.665762 0
M  V30 43 H -1.781814 2.402292 -3.287376 0
M  V30 44 H -3.818306 1.250925 -2.709395 0
M  V30 45 H -2.250109 0.223514 1.002933 0
M  V30 46 H -0.151972 -2.976419 2.886624 0
M  V30 47 H -1.744888 -2.146644 2.809037 0
M  V30 48 H -2.120347 -4.459050 2.924420 0
M  V30 49 H -2.602197 -3.951140 1.306358 0
M  V30 END ATOM
M  V30 BEGIN BOND
M  V30 1 1 1 2
M  V30 2 1 2 3
M  V30 3 1 3 4
M  V30 4 1 4 5
M  V30 5 1 5 6
M  V30 6 1 6 7
M  V30 7 1 7 8
M  V30 8 1 8 9
M  V30 9 1 9 10
M  V30 10 2 10 11
M  V30 11 1 11 12
M  V30 12 2 12 13
M  V30 13 1 13 14
M  V30 14 2 14 15
M  V30 15 1 15 16
M  V30 16 1 16 17
M  V30 17 2 17 18
M  V30 18 1 18 19
M  V30 19 2 19 20
M  V30 20 1 20 21
M  V30 21 1 20 22
M  V30 22 2 22 23
M  V30 23 1 5 24
M  V30 24 1 24 25
M  V30 25 1 25 2
M  V30 26 1 23 9
M  V30 27 1 15 10
M  V30 28 1 23 17
M  V30 29 1 1 26
M  V30 30 1 1 27
M  V30 31 1 1 28
M  V30 32 1 3 29
M  V30 33 1 3 30
M  V30 34 1 4 31
M  V30 35 1 4 32
M  V30 36 1 6 33
M  V30 37 1 6 34
M  V30 38 1 7 35
M  V30 39 1 7 36
M  V30 40 1 8 37
M  V30 41 1 8 38
M  V30 42 1 11 39
M  V30 43 1 12 40
M  V30 44 1 13 41
M  V30 45 1 14 42
M  V30 46 1 18 43
M  V30 47 1 19 44
M  V30 48 1 22 45
M  V30 49 1 24 46
M  V30 50 1 24 47
M  V30 51 1 25 48
M  V30 52 1 25 49
M  V30 END BOND
M  V30 END CTAB
M  END
>  <Dataset>  (804) 
OralDrugs

>  <Ligand_Instance>  (804) 
nan

>  <PDB_ID>  (804) 
nan

>  <Standardized_SMILES>  (804) 
CN1CCN(CCCN2c3ccccc3Sc3ccc(Cl)cc32)CC1

>  <Name>  (804) 
Prochlorperazine

>  <Pocket>  (804) 
nan

>  <ATP_Site>  (804) 
nan

>  <Peripheral>  (804) 
nan

>  <Num_H_Atoms_ProtBoundConf>  (804) 
nan

>  <Num_Resolved_Atoms>  (804) 
nan

>  <Num_Not_Resolved_Atoms>  (804) 
nan

$$$$
CHEMBL86715
     RDKit          3D

  0  0  0  0  0  0  0  0  0  0999 V3000
M  V30 BEGIN CTAB
M  V30 COUNTS 50 52 0 0 0
M  V30 BEGIN ATOM
M  V30 1 O 2.532811 -2.328357 0.754992 0
M  V30 2 C 1.600149 -1.283881 0.431702 0
M  V30 3 C 0.793489 -1.127357 1.675148 0
M  V30 4 C -0.265896 -0.090367 1.562150 0
M  V30 5 N -1.059483 0.127542 2.747110 0
M  V30 6 C -1.924557 -0.936378 3.123217 0
M  V30 7 C -2.946090 -0.172594 3.982553 0
M  V30 8 C -3.229005 1.010912 3.096769 0
M  V30 9 C -1.899161 1.289581 2.473187 0
M  V30 10 C 2.474591 -0.111978 0.272908 0
M  V30 11 C 3.166416 -0.010046 -0.943035 0
M  V30 12 C 4.039242 1.026129 -1.236826 0
M  V30 13 C 4.264235 2.037509 -0.296444 0
M  V30 14 C 3.598021 1.961071 0.904989 0
M  V30 15 C 2.744140 0.907812 1.139835 0
M  V30 16 C 0.900000 -1.758581 -0.790133 0
M  V30 17 C 0.194035 -3.044884 -0.516614 0
M  V30 18 C -1.274003 -3.062705 -0.662001 0
M  V30 19 C -1.621418 -2.445078 -1.981140 0
M  V30 20 C -1.183779 -1.017257 -2.032984 0
M  V30 21 C 0.209673 -0.753592 -1.627800 0
M  V30 22 H 2.209410 -2.877752 1.480434 0
M  V30 23 H 1.476000 -0.856423 2.506145 0
M  V30 24 H 0.351420 -2.091948 2.031062 0
M  V30 25 H -0.992787 -0.468864 0.800122 0
M  V30 26 H 0.110449 0.893400 1.244603 0
M  V30 27 H -2.496462 -1.381525 2.290432 0
M  V30 28 H -1.418784 -1.687308 3.755891 0
M  V30 29 H -3.820394 -0.777676 4.240663 0
M  V30 30 H -2.362798 0.182450 4.875157 0
M  V30 31 H -3.567087 1.899509 3.666443 0
M  V30 32 H -3.937707 0.685987 2.307127 0
M  V30 33 H -2.007551 1.470900 1.387865 0
M  V30 34 H -1.378224 2.162650 2.934805 0
M  V30 35 H 3.135003 -0.679533 -1.790220 0
M  V30 36 H 4.598204 1.163649 -2.139893 0
M  V30 37 H 4.928648 2.857844 -0.477215 0
M  V30 38 H 3.756402 2.727407 1.639252 0
M  V30 39 H 2.275684 0.909868 2.087943 0
M  V30 40 H 1.772180 -2.091900 -1.448993 0
M  V30 41 H 0.470365 -3.425631 0.511713 0
M  V30 42 H 0.561178 -3.896854 -1.167439 0
M  V30 43 H -1.610911 -4.129438 -0.730727 0
M  V30 44 H -1.868923 -2.585389 0.126026 0
M  V30 45 H -2.746517 -2.452415 -2.027535 0
M  V30 46 H -1.273727 -3.023041 -2.851871 0
M  V30 47 H -1.930340 -0.444570 -1.404987 0
M  V30 48 H -1.435993 -0.675724 -3.060611 0
M  V30 49 H 0.750584 -0.498770 -2.593939 0
M  V30 50 H 0.240788 0.232157 -1.100567 0
M  V30 END ATOM
M  V30 BEGIN BOND
M  V30 1 1 1 2
M  V30 2 1 2 3
M  V30 3 1 3 4
M  V30 4 1 4 5
M  V30 5 1 5 6
M  V30 6 1 6 7
M  V30 7 1 7 8
M  V30 8 1 8 9
M  V30 9 1 2 10
M  V30 10 2 10 11
M  V30 11 1 11 12
M  V30 12 2 12 13
M  V30 13 1 13 14
M  V30 14 2 14 15
M  V30 15 1 2 16
M  V30 16 1 16 17
M  V30 17 1 17 18
M  V30 18 1 18 19
M  V30 19 1 19 20
M  V30 20 1 20 21
M  V30 21 1 9 5
M  V30 22 1 15 10
M  V30 23 1 21 16
M  V30 24 1 1 22
M  V30 25 1 3 23
M  V30 26 1 3 24
M  V30 27 1 4 25
M  V30 28 1 4 26
M  V30 29 1 6 27
M  V30 30 1 6 28
M  V30 31 1 7 29
M  V30 32 1 7 30
M  V30 33 1 8 31
M  V30 34 1 8 32
M  V30 35 1 9 33
M  V30 36 1 9 34
M  V30 37 1 11 35
M  V30 38 1 12 36
M  V30 39 1 13 37
M  V30 40 1 14 38
M  V30 41 1 15 39
M  V30 42 1 16 40
M  V30 43 1 17 41
M  V30 44 1 17 42
M  V30 45 1 18 43
M  V30 46 1 18 44
M  V30 47 1 19 45
M  V30 48 1 19 46
M  V30 49 1 20 47
M  V30 50 1 20 48
M  V30 51 1 21 49
M  V30 52 1 21 50
M  V30 END BOND
M  V30 END CTAB
M  END
>  <Dataset>  (805) 
OralDrugs

>  <Ligand_Instance>  (805) 
nan

>  <PDB_ID>  (805) 
nan

>  <Standardized_SMILES>  (805) 
OC(CCN1CCCC1)(c1ccccc1)C1CCCCC1

>  <Name>  (805) 
Procyclidine

>  <Pocket>  (805) 
nan

>  <ATP_Site>  (805) 
nan

>  <Peripheral>  (805) 
nan

>  <Num_H_Atoms_ProtBoundConf>  (805) 
nan

>  <Num_Resolved_Atoms>  (805) 
nan

>  <Num_Not_Resolved_Atoms>  (805) 
nan

$$$$
CHEMBL103
     RDKit          3D

  0  0  0  0  0  0  0  0  0  0999 V3000
M  V30 BEGIN CTAB
M  V30 COUNTS 53 56 0 0 0
M  V30 BEGIN ATOM
M  V30 1 C -0.033498 -5.465342 2.023577 0
M  V30 2 C 0.715284 -5.098439 0.798947 0
M  V30 3 O 0.960246 -5.942772 -0.075284 0
M  V30 4 C 1.189995 -3.722310 0.584152 0 CFG=1
M  V30 5 C 1.923055 -3.613582 -0.737644 0
M  V30 6 C 1.508298 -2.272354 -1.344255 0
M  V30 7 C 0.950732 -1.575225 -0.168627 0 CFG=1
M  V30 8 C 0.129089 -0.353435 -0.405078 0 CFG=2
M  V30 9 C 0.928941 0.638015 -1.181300 0
M  V30 10 C 0.125495 1.895164 -1.365481 0
M  V30 11 C -0.324568 2.398685 -0.063303 0
M  V30 12 C -0.371708 3.728080 0.101118 0
M  V30 13 C -0.797889 4.344871 1.337286 0
M  V30 14 O -1.244440 5.516475 1.440222 0
M  V30 15 C -0.706375 3.545519 2.585394 0
M  V30 16 C -0.189542 2.157458 2.338763 0
M  V30 17 C -0.727502 1.521647 1.073245 0 CFG=1
M  V30 18 C -2.241993 1.566966 1.199445 0
M  V30 19 C -0.202119 0.148563 0.999381 0 CFG=1
M  V30 20 C -1.169455 -0.894279 1.559187 0
M  V30 21 C -0.456714 -2.217633 1.746180 0
M  V30 22 C 0.121492 -2.692109 0.446403 0 CFG=2
M  V30 23 C -0.933118 -3.222695 -0.479945 0
M  V30 24 H 0.164721 -6.503157 2.359216 0
M  V30 25 H 0.258958 -4.800930 2.865043 0
M  V30 26 H -1.112469 -5.380819 1.760181 0
M  V30 27 H 1.906993 -3.381321 1.362148 0
M  V30 28 H 3.033407 -3.595459 -0.584686 0
M  V30 29 H 1.666546 -4.450797 -1.422236 0
M  V30 30 H 2.399793 -1.734643 -1.740385 0
M  V30 31 H 0.791719 -2.424599 -2.172916 0
M  V30 32 H 1.782460 -1.378315 0.542544 0
M  V30 33 H -0.789671 -0.618007 -0.960132 0
M  V30 34 H 1.080395 0.186412 -2.189660 0
M  V30 35 H 1.889066 0.868667 -0.713426 0
M  V30 36 H 0.831105 2.638484 -1.826168 0
M  V30 37 H -0.695221 1.761287 -2.097447 0
M  V30 38 H -0.081075 4.403762 -0.717877 0
M  V30 39 H -1.653761 3.568865 3.162450 0
M  V30 40 H 0.035442 4.053905 3.238746 0
M  V30 41 H -0.592869 1.531744 3.174362 0
M  V30 42 H 0.913203 2.088266 2.410469 0
M  V30 43 H -2.486314 1.397601 2.271226 0
M  V30 44 H -2.650372 2.537778 0.915947 0
M  V30 45 H -2.750936 0.774495 0.636443 0
M  V30 46 H 0.732535 0.038182 1.621622 0
M  V30 47 H -1.622641 -0.552627 2.496261 0
M  V30 48 H -1.907955 -1.080686 0.739418 0
M  V30 49 H 0.262195 -2.226572 2.578906 0
M  V30 50 H -1.259768 -2.952107 2.002528 0
M  V30 51 H -1.872060 -3.311470 0.109678 0
M  V30 52 H -1.134311 -2.591263 -1.346239 0
M  V30 53 H -0.706752 -4.271926 -0.820796 0
M  V30 END ATOM
M  V30 BEGIN BOND
M  V30 1 1 1 2
M  V30 2 2 2 3
M  V30 3 1 2 4
M  V30 4 1 4 5
M  V30 5 1 5 6
M  V30 6 1 6 7
M  V30 7 1 7 8
M  V30 8 1 8 9
M  V30 9 1 9 10
M  V30 10 1 10 11
M  V30 11 2 11 12
M  V30 12 1 12 13
M  V30 13 2 13 14
M  V30 14 1 13 15
M  V30 15 1 15 16
M  V30 16 1 16 17
M  V30 17 1 17 18 CFG=1
M  V30 18 1 17 19
M  V30 19 1 19 20
M  V30 20 1 20 21
M  V30 21 1 21 22
M  V30 22 1 22 23 CFG=3
M  V30 23 1 22 4
M  V30 24 1 22 7
M  V30 25 1 19 8
M  V30 26 1 17 11
M  V30 27 1 1 24
M  V30 28 1 1 25
M  V30 29 1 1 26
M  V30 30 1 4 27 CFG=1
M  V30 31 1 5 28
M  V30 32 1 5 29
M  V30 33 1 6 30
M  V30 34 1 6 31
M  V30 35 1 7 32 CFG=1
M  V30 36 1 8 33 CFG=3
M  V30 37 1 9 34
M  V30 38 1 9 35
M  V30 39 1 10 36
M  V30 40 1 10 37
M  V30 41 1 12 38
M  V30 42 1 15 39
M  V30 43 1 15 40
M  V30 44 1 16 41
M  V30 45 1 16 42
M  V30 46 1 18 43
M  V30 47 1 18 44
M  V30 48 1 18 45
M  V30 49 1 19 46 CFG=1
M  V30 50 1 20 47
M  V30 51 1 20 48
M  V30 52 1 21 49
M  V30 53 1 21 50
M  V30 54 1 23 51
M  V30 55 1 23 52
M  V30 56 1 23 53
M  V30 END BOND
M  V30 END CTAB
M  END
>  <Dataset>  (806) 
OralDrugs

>  <Ligand_Instance>  (806) 
nan

>  <PDB_ID>  (806) 
nan

>  <Standardized_SMILES>  (806) 
CC(=O)[C@H]1CC[C@H]2[C@@H]3CCC4=CC(=O)CC[C@]4(C)[C@H]3CC[C@]12C

>  <Name>  (806) 
Progesterone

>  <Pocket>  (806) 
nan

>  <ATP_Site>  (806) 
nan

>  <Peripheral>  (806) 
nan

>  <Num_H_Atoms_ProtBoundConf>  (806) 
nan

>  <Num_Resolved_Atoms>  (806) 
nan

>  <Num_Not_Resolved_Atoms>  (806) 
nan

$$$$
CHEMBL564
     RDKit          3D

  0  0  0  0  0  0  0  0  0  0999 V3000
M  V30 BEGIN CTAB
M  V30 COUNTS 40 42 0 0 0
M  V30 BEGIN ATOM
M  V30 1 C -0.411397 -3.424075 2.765385 0
M  V30 2 N -0.437490 -3.578560 1.346972 0
M  V30 3 C -1.064623 -4.804327 0.919919 0
M  V30 4 C 0.764775 -3.238074 0.664641 0
M  V30 5 C 1.014750 -1.742953 0.732386 0
M  V30 6 C -0.131255 -0.985372 0.085471 0
M  V30 7 N 0.193522 0.423292 0.191186 0
M  V30 8 C 1.123303 1.006381 -0.685612 0
M  V30 9 C 1.704040 0.264534 -1.693426 0
M  V30 10 C 2.621600 0.737672 -2.618852 0
M  V30 11 C 3.007827 2.060856 -2.553320 0
M  V30 12 C 2.456290 2.857766 -1.559795 0
M  V30 13 C 1.571551 2.295574 -0.710439 0
M  V30 14 S 0.931903 3.432114 0.499485 0
M  V30 15 C -0.206070 2.514238 1.486113 0
M  V30 16 C -0.801205 3.237614 2.487069 0
M  V30 17 C -1.696700 2.618154 3.321445 0
M  V30 18 C -1.964594 1.269258 3.114201 0
M  V30 19 C -1.320887 0.611090 2.079819 0
M  V30 20 C -0.413701 1.182881 1.211451 0
M  V30 21 H 0.135212 -4.254463 3.270379 0
M  V30 22 H -1.471675 -3.343667 3.136204 0
M  V30 23 H 0.078193 -2.494583 3.052251 0
M  V30 24 H -1.916796 -4.519155 0.244821 0
M  V30 25 H -1.476163 -5.335280 1.826641 0
M  V30 26 H -0.349108 -5.422426 0.361889 0
M  V30 27 H 0.701417 -3.510850 -0.404946 0
M  V30 28 H 1.628718 -3.750108 1.118183 0
M  V30 29 H 1.189502 -1.381723 1.773953 0
M  V30 30 H 1.966931 -1.553858 0.213934 0
M  V30 31 H -1.120421 -1.268221 0.455772 0
M  V30 32 H -0.105339 -1.354488 -0.965149 0
M  V30 33 H 1.501334 -0.777182 -1.890724 0
M  V30 34 H 3.078557 0.153975 -3.408645 0
M  V30 35 H 3.723324 2.460276 -3.259947 0
M  V30 36 H 2.788360 3.875664 -1.552689 0
M  V30 37 H -0.613046 4.283668 2.671884 0
M  V30 38 H -2.177783 3.166599 4.116538 0
M  V30 39 H -2.672933 0.841216 3.799395 0
M  V30 40 H -1.626442 -0.401903 2.061981 0
M  V30 END ATOM
M  V30 BEGIN BOND
M  V30 1 1 1 2
M  V30 2 1 2 3
M  V30 3 1 2 4
M  V30 4 1 4 5
M  V30 5 1 5 6
M  V30 6 1 6 7
M  V30 7 1 7 8
M  V30 8 2 8 9
M  V30 9 1 9 10
M  V30 10 2 10 11
M  V30 11 1 11 12
M  V30 12 2 12 13
M  V30 13 1 13 14
M  V30 14 1 14 15
M  V30 15 2 15 16
M  V30 16 1 16 17
M  V30 17 2 17 18
M  V30 18 1 18 19
M  V30 19 2 19 20
M  V30 20 1 20 7
M  V30 21 1 13 8
M  V30 22 1 20 15
M  V30 23 1 1 21
M  V30 24 1 1 22
M  V30 25 1 1 23
M  V30 26 1 3 24
M  V30 27 1 3 25
M  V30 28 1 3 26
M  V30 29 1 4 27
M  V30 30 1 4 28
M  V30 31 1 5 29
M  V30 32 1 5 30
M  V30 33 1 6 31
M  V30 34 1 6 32
M  V30 35 1 9 33
M  V30 36 1 10 34
M  V30 37 1 11 35
M  V30 38 1 12 36
M  V30 39 1 16 37
M  V30 40 1 17 38
M  V30 41 1 18 39
M  V30 42 1 19 40
M  V30 END BOND
M  V30 END CTAB
M  END
>  <Dataset>  (807) 
OralDrugs

>  <Ligand_Instance>  (807) 
nan

>  <PDB_ID>  (807) 
nan

>  <Standardized_SMILES>  (807) 
CN(C)CCCN1c2ccccc2Sc2ccccc21

>  <Name>  (807) 
Promazine

>  <Pocket>  (807) 
nan

>  <ATP_Site>  (807) 
nan

>  <Peripheral>  (807) 
nan

>  <Num_H_Atoms_ProtBoundConf>  (807) 
nan

>  <Num_Resolved_Atoms>  (807) 
nan

>  <Num_Not_Resolved_Atoms>  (807) 
nan

$$$$
CHEMBL643
     RDKit          3D

  0  0  0  0  0  0  0  0  0  0999 V3000
M  V30 BEGIN CTAB
M  V30 COUNTS 40 42 0 0 0
M  V30 BEGIN ATOM
M  V30 1 C -1.074668 -2.762662 2.680990 0
M  V30 2 C -0.231005 -1.742475 1.942795 0
M  V30 3 C -0.612399 -1.562784 0.504519 0
M  V30 4 N 0.165490 -0.612918 -0.238040 0
M  V30 5 C 1.460425 -0.961870 -0.660315 0
M  V30 6 C 1.971846 -2.226250 -0.467217 0
M  V30 7 C 3.211780 -2.677619 -0.867108 0
M  V30 8 C 4.050729 -1.806075 -1.529640 0
M  V30 9 C 3.594289 -0.511529 -1.758407 0
M  V30 10 C 2.363056 -0.170851 -1.325131 0
M  V30 11 S 1.937852 1.515149 -1.710927 0
M  V30 12 C 0.266409 1.707553 -1.121603 0
M  V30 13 C -0.253742 2.950605 -1.371522 0
M  V30 14 C -1.526583 3.235909 -0.958744 0
M  V30 15 C -2.234871 2.261577 -0.307856 0
M  V30 16 C -1.640014 1.044094 -0.098070 0
M  V30 17 C -0.370422 0.676336 -0.479346 0
M  V30 18 N -0.067619 -0.517978 2.684238 0
M  V30 19 C 0.684673 -0.809815 3.924682 0
M  V30 20 C -1.268389 0.111097 3.112862 0
M  V30 21 H -0.535785 -3.082214 3.595974 0
M  V30 22 H -1.073294 -3.675495 2.020249 0
M  V30 23 H -2.115780 -2.495312 2.826623 0
M  V30 24 H 0.773983 -2.200125 1.990372 0
M  V30 25 H -1.712139 -1.447057 0.432516 0
M  V30 26 H -0.488631 -2.547532 -0.066923 0
M  V30 27 H 1.429526 -3.025724 0.012994 0
M  V30 28 H 3.601030 -3.676030 -0.707275 0
M  V30 29 H 5.029466 -2.126950 -1.856970 0
M  V30 30 H 4.291970 0.118943 -2.278426 0
M  V30 31 H 0.265050 3.749857 -1.880040 0
M  V30 32 H -1.972755 4.203642 -1.136708 0
M  V30 33 H -3.243665 2.517160 0.008576 0
M  V30 34 H -2.296438 0.366667 0.425007 0
M  V30 35 H 0.019522 -0.848746 4.798069 0
M  V30 36 H 1.432222 -0.010102 4.077169 0
M  V30 37 H 1.215752 -1.782917 3.774883 0
M  V30 38 H -1.253064 1.170713 2.781337 0
M  V30 39 H -2.198277 -0.324216 2.718863 0
M  V30 40 H -1.392050 0.127498 4.213379 0
M  V30 END ATOM
M  V30 BEGIN BOND
M  V30 1 1 1 2
M  V30 2 1 2 3
M  V30 3 1 3 4
M  V30 4 1 4 5
M  V30 5 2 5 6
M  V30 6 1 6 7
M  V30 7 2 7 8
M  V30 8 1 8 9
M  V30 9 2 9 10
M  V30 10 1 10 11
M  V30 11 1 11 12
M  V30 12 2 12 13
M  V30 13 1 13 14
M  V30 14 2 14 15
M  V30 15 1 15 16
M  V30 16 2 16 17
M  V30 17 1 2 18
M  V30 18 1 18 19
M  V30 19 1 18 20
M  V30 20 1 17 4
M  V30 21 1 10 5
M  V30 22 1 17 12
M  V30 23 1 1 21
M  V30 24 1 1 22
M  V30 25 1 1 23
M  V30 26 1 2 24
M  V30 27 1 3 25
M  V30 28 1 3 26
M  V30 29 1 6 27
M  V30 30 1 7 28
M  V30 31 1 8 29
M  V30 32 1 9 30
M  V30 33 1 13 31
M  V30 34 1 14 32
M  V30 35 1 15 33
M  V30 36 1 16 34
M  V30 37 1 19 35
M  V30 38 1 19 36
M  V30 39 1 19 37
M  V30 40 1 20 38
M  V30 41 1 20 39
M  V30 42 1 20 40
M  V30 END BOND
M  V30 END CTAB
M  END
>  <Dataset>  (808) 
OralDrugs

>  <Ligand_Instance>  (808) 
nan

>  <PDB_ID>  (808) 
nan

>  <Standardized_SMILES>  (808) 
CC(CN1c2ccccc2Sc2ccccc21)N(C)C

>  <Name>  (808) 
Promethazine

>  <Pocket>  (808) 
nan

>  <ATP_Site>  (808) 
nan

>  <Peripheral>  (808) 
nan

>  <Num_H_Atoms_ProtBoundConf>  (808) 
nan

>  <Num_Resolved_Atoms>  (808) 
nan

>  <Num_Not_Resolved_Atoms>  (808) 
nan

$$$$
CHEMBL631
     RDKit          3D

  0  0  0  0  0  0  0  0  0  0999 V3000
M  V30 BEGIN CTAB
M  V30 COUNTS 52 53 0 0 0
M  V30 BEGIN ATOM
M  V30 1 C 1.517871 -3.664369 -1.584325 0
M  V30 2 C 0.898962 -2.582062 -0.721999 0
M  V30 3 C 1.708274 -1.301471 -0.813187 0
M  V30 4 N 3.032846 -1.420241 -0.394286 0
M  V30 5 C 3.451252 -1.636481 0.897777 0
M  V30 6 C 3.348181 -0.570876 1.945211 0
M  V30 7 O 4.052514 0.570491 1.613356 0
M  V30 8 C 2.068073 -0.338317 2.616334 0
M  V30 9 O 1.139295 0.449433 1.997164 0
M  V30 10 C 1.147761 1.752247 1.693883 0
M  V30 11 C 1.992689 2.813648 1.860577 0
M  V30 12 C 1.769400 4.096483 1.447284 0
M  V30 13 C 0.599797 4.412987 0.797063 0
M  V30 14 C -0.309189 3.405536 0.588888 0
M  V30 15 C -0.029180 2.108063 1.033321 0
M  V30 16 C -1.153516 1.255549 0.735447 0
M  V30 17 O -2.225482 1.516858 0.121439 0
M  V30 18 C -1.689838 -0.100566 0.887915 0
M  V30 19 C -3.044505 -0.232886 0.216512 0
M  V30 20 C -3.584906 -1.599927 0.359939 0
M  V30 21 C -3.335511 -2.590794 -0.579742 0
M  V30 22 C -3.856525 -3.863951 -0.419710 0
M  V30 23 C -4.640522 -4.235928 0.653210 0
M  V30 24 C -4.894550 -3.248891 1.598576 0
M  V30 25 C -4.370104 -1.995933 1.421798 0
M  V30 26 H 0.744553 -4.300361 -2.033328 0
M  V30 27 H 2.077790 -3.117573 -2.384924 0
M  V30 28 H 2.236940 -4.254572 -1.005981 0
M  V30 29 H -0.100274 -2.356184 -1.146136 0
M  V30 30 H 0.763635 -2.970890 0.280755 0
M  V30 31 H 1.762763 -1.137373 -1.947506 0
M  V30 32 H 1.113579 -0.435903 -0.490206 0
M  V30 33 H 3.739006 -1.546953 -1.160132 0
M  V30 34 H 3.075967 -2.570324 1.393458 0
M  V30 35 H 4.577878 -1.855075 0.846791 0
M  V30 36 H 4.037336 -0.968830 2.840700 0
M  V30 37 H 4.138743 0.714537 0.630219 0
M  V30 38 H 2.341029 0.098665 3.655129 0
M  V30 39 H 1.626023 -1.331463 2.948853 0
M  V30 40 H 2.903402 2.643204 2.392725 0
M  V30 41 H 2.506910 4.859356 1.624491 0
M  V30 42 H 0.474034 5.432574 0.493627 0
M  V30 43 H -1.197870 3.742505 0.072217 0
M  V30 44 H -1.021900 -0.874914 0.497907 0
M  V30 45 H -1.878701 -0.286909 1.973403 0
M  V30 46 H -3.735450 0.502688 0.720982 0
M  V30 47 H -3.005405 0.021094 -0.849435 0
M  V30 48 H -2.717336 -2.297227 -1.424444 0
M  V30 49 H -3.581259 -4.533892 -1.229087 0
M  V30 50 H -4.986214 -5.244905 0.671447 0
M  V30 51 H -5.505997 -3.536036 2.436158 0
M  V30 52 H -4.617929 -1.290385 2.203560 0
M  V30 END ATOM
M  V30 BEGIN BOND
M  V30 1 1 1 2
M  V30 2 1 2 3
M  V30 3 1 3 4
M  V30 4 1 4 5
M  V30 5 1 5 6
M  V30 6 1 6 7
M  V30 7 1 6 8
M  V30 8 1 8 9
M  V30 9 1 9 10
M  V30 10 2 10 11
M  V30 11 1 11 12
M  V30 12 2 12 13
M  V30 13 1 13 14
M  V30 14 2 14 15
M  V30 15 1 15 16
M  V30 16 2 16 17
M  V30 17 1 16 18
M  V30 18 1 18 19
M  V30 19 1 19 20
M  V30 20 2 20 21
M  V30 21 1 21 22
M  V30 22 2 22 23
M  V30 23 1 23 24
M  V30 24 2 24 25
M  V30 25 1 15 10
M  V30 26 1 25 20
M  V30 27 1 1 26
M  V30 28 1 1 27
M  V30 29 1 1 28
M  V30 30 1 2 29
M  V30 31 1 2 30
M  V30 32 1 3 31
M  V30 33 1 3 32
M  V30 34 1 4 33
M  V30 35 1 5 34
M  V30 36 1 5 35
M  V30 37 1 6 36
M  V30 38 1 7 37
M  V30 39 1 8 38
M  V30 40 1 8 39
M  V30 41 1 11 40
M  V30 42 1 12 41
M  V30 43 1 13 42
M  V30 44 1 14 43
M  V30 45 1 18 44
M  V30 46 1 18 45
M  V30 47 1 19 46
M  V30 48 1 19 47
M  V30 49 1 21 48
M  V30 50 1 22 49
M  V30 51 1 23 50
M  V30 52 1 24 51
M  V30 53 1 25 52
M  V30 END BOND
M  V30 END CTAB
M  END
>  <Dataset>  (809) 
OralDrugs

>  <Ligand_Instance>  (809) 
nan

>  <PDB_ID>  (809) 
nan

>  <Standardized_SMILES>  (809) 
CCCNCC(O)COc1ccccc1C(=O)CCc1ccccc1

>  <Name>  (809) 
Propafenone

>  <Pocket>  (809) 
nan

>  <ATP_Site>  (809) 
nan

>  <Peripheral>  (809) 
nan

>  <Num_H_Atoms_ProtBoundConf>  (809) 
nan

>  <Num_Resolved_Atoms>  (809) 
nan

>  <Num_Not_Resolved_Atoms>  (809) 
nan

$$$$
CHEMBL1180725
     RDKit          3D

  0  0  0  0  0  0  0  0  0  0999 V3000
M  V30 BEGIN CTAB
M  V30 COUNTS 57 59 0 0 0
M  V30 BEGIN ATOM
M  V30 1 C 3.568190 -0.742081 2.268548 0
M  V30 2 C 2.966463 -1.625224 1.170456 0
M  V30 3 C 1.840306 -2.374375 1.777018 0
M  V30 4 N 2.656563 -0.871535 -0.031483 0 CHG=1 VAL=4
M  V30 5 C 3.649484 0.203268 -0.035369 0
M  V30 6 C 1.319168 -0.456729 -0.026204 0
M  V30 7 C 0.994703 0.990515 0.183816 0
M  V30 8 O -0.450290 1.147673 0.145511 0
M  V30 9 C -1.258271 0.510288 1.030710 0
M  V30 10 O -1.036953 -0.263962 1.987184 0
M  V30 11 C -2.760086 0.699234 0.929376 0
M  V30 12 C -3.317558 -0.217976 1.955536 0
M  V30 13 C -3.070678 -0.054133 3.298855 0
M  V30 14 C -3.560261 -0.891336 4.304644 0
M  V30 15 C -4.350265 -1.954321 3.857475 0
M  V30 16 C -4.646101 -2.189618 2.524563 0
M  V30 17 C -4.114036 -1.302805 1.603017 0
M  V30 18 O -4.451674 -1.595597 0.289476 0
M  V30 19 C -4.015398 -0.817623 -0.768972 0
M  V30 20 C -4.304711 -1.032461 -2.098438 0
M  V30 21 C -3.800389 -0.164288 -3.078909 0
M  V30 22 C -2.997043 0.933167 -2.737765 0
M  V30 23 C -2.744131 1.089526 -1.373612 0
M  V30 24 C -3.231304 0.247766 -0.404589 0
M  V30 25 C 3.030070 -1.717215 -1.148356 0
M  V30 26 C 2.148463 -2.897378 -1.371937 0
M  V30 27 C 3.227985 -0.982785 -2.423636 0
M  V30 28 H 4.654214 -0.581344 2.140993 0
M  V30 29 H 3.496612 -1.362844 3.206525 0
M  V30 30 H 2.977632 0.154890 2.474599 0
M  V30 31 H 3.801640 -2.359628 0.944453 0
M  V30 32 H 2.309387 -3.146945 2.462282 0
M  V30 33 H 1.191343 -2.945535 1.124278 0
M  V30 34 H 1.296360 -1.716812 2.518432 0
M  V30 35 H 4.621562 -0.323161 0.123278 0
M  V30 36 H 3.770347 0.689887 -1.018693 0
M  V30 37 H 3.446659 0.994139 0.683290 0
M  V30 38 H 0.724610 -1.027055 0.699119 0
M  V30 39 H 0.866795 -0.704359 -1.035691 0
M  V30 40 H 1.287378 1.346069 1.190186 0
M  V30 41 H 1.346259 1.692884 -0.549549 0
M  V30 42 H -3.024799 1.755033 1.105413 0
M  V30 43 H -2.469463 0.750717 3.662448 0
M  V30 44 H -3.368879 -0.760364 5.353896 0
M  V30 45 H -4.734853 -2.611689 4.648081 0
M  V30 46 H -5.266377 -3.032048 2.242703 0
M  V30 47 H -4.923336 -1.881541 -2.349888 0
M  V30 48 H -4.043807 -0.348788 -4.133395 0
M  V30 49 H -2.641344 1.561232 -3.539738 0
M  V30 50 H -2.109661 1.980095 -1.253650 0
M  V30 51 H 4.039569 -2.142763 -0.860800 0
M  V30 52 H 2.348183 -3.243414 -2.431221 0
M  V30 53 H 2.399505 -3.789702 -0.761491 0
M  V30 54 H 1.061218 -2.682393 -1.377197 0
M  V30 55 H 4.281775 -0.751010 -2.674771 0
M  V30 56 H 2.871323 -1.616627 -3.261306 0
M  V30 57 H 2.559914 -0.080672 -2.468409 0
M  V30 END ATOM
M  V30 BEGIN BOND
M  V30 1 1 1 2
M  V30 2 1 2 3
M  V30 3 1 2 4
M  V30 4 1 4 5
M  V30 5 1 4 6
M  V30 6 1 6 7
M  V30 7 1 7 8
M  V30 8 1 8 9
M  V30 9 2 9 10
M  V30 10 1 9 11
M  V30 11 1 11 12
M  V30 12 2 12 13
M  V30 13 1 13 14
M  V30 14 2 14 15
M  V30 15 1 15 16
M  V30 16 2 16 17
M  V30 17 1 17 18
M  V30 18 1 18 19
M  V30 19 2 19 20
M  V30 20 1 20 21
M  V30 21 2 21 22
M  V30 22 1 22 23
M  V30 23 2 23 24
M  V30 24 1 4 25
M  V30 25 1 25 26
M  V30 26 1 25 27
M  V30 27 1 24 11
M  V30 28 1 17 12
M  V30 29 1 24 19
M  V30 30 1 1 28
M  V30 31 1 1 29
M  V30 32 1 1 30
M  V30 33 1 2 31
M  V30 34 1 3 32
M  V30 35 1 3 33
M  V30 36 1 3 34
M  V30 37 1 5 35
M  V30 38 1 5 36
M  V30 39 1 5 37
M  V30 40 1 6 38
M  V30 41 1 6 39
M  V30 42 1 7 40
M  V30 43 1 7 41
M  V30 44 1 11 42
M  V30 45 1 13 43
M  V30 46 1 14 44
M  V30 47 1 15 45
M  V30 48 1 16 46
M  V30 49 1 20 47
M  V30 50 1 21 48
M  V30 51 1 22 49
M  V30 52 1 23 50
M  V30 53 1 25 51
M  V30 54 1 26 52
M  V30 55 1 26 53
M  V30 56 1 26 54
M  V30 57 1 27 55
M  V30 58 1 27 56
M  V30 59 1 27 57
M  V30 END BOND
M  V30 END CTAB
M  END
>  <Dataset>  (810) 
OralDrugs

>  <Ligand_Instance>  (810) 
nan

>  <PDB_ID>  (810) 
nan

>  <Standardized_SMILES>  (810) 
CC(C)[N+](C)(CCOC(=O)C1c2ccccc2Oc2ccccc21)C(C)C

>  <Name>  (810) 
Propantheline

>  <Pocket>  (810) 
nan

>  <ATP_Site>  (810) 
nan

>  <Peripheral>  (810) 
nan

>  <Num_H_Atoms_ProtBoundConf>  (810) 
nan

>  <Num_Resolved_Atoms>  (810) 
nan

>  <Num_Not_Resolved_Atoms>  (810) 
nan

$$$$
CHEMBL27
     RDKit          3D

  0  0  0  0  0  0  0  0  0  0999 V3000
M  V30 BEGIN CTAB
M  V30 COUNTS 40 41 0 0 0
M  V30 BEGIN ATOM
M  V30 1 C -0.732539 -2.081888 2.075698 0
M  V30 2 C -1.469729 -2.712001 0.878147 0
M  V30 3 C -2.423398 -3.722899 1.570702 0
M  V30 4 N -0.621754 -3.473296 0.073898 0
M  V30 5 C 0.523053 -2.982218 -0.528924 0
M  V30 6 C 0.482500 -2.014520 -1.646784 0
M  V30 7 O 1.819430 -1.724362 -2.028663 0
M  V30 8 C -0.219720 -0.730260 -1.441712 0
M  V30 9 O 0.163555 0.142043 -0.495126 0
M  V30 10 C 1.154486 0.911889 -0.090575 0
M  V30 11 C 2.420251 1.200705 -0.547791 0
M  V30 12 C 3.346684 2.051016 0.010993 0
M  V30 13 C 2.929284 2.674724 1.166648 0
M  V30 14 C 1.687560 2.471647 1.726672 0
M  V30 15 C 1.408823 3.164502 2.882985 0
M  V30 16 C 0.171694 2.978117 3.461364 0
M  V30 17 C -0.754166 2.126504 2.899884 0
M  V30 18 C -0.399521 1.476971 1.752869 0
M  V30 19 C 0.808456 1.587393 1.088382 0
M  V30 20 H -1.459461 -1.354138 2.509794 0
M  V30 21 H 0.206274 -1.605380 1.783480 0
M  V30 22 H -0.580178 -2.850898 2.872275 0
M  V30 23 H -2.155437 -2.000140 0.413245 0
M  V30 24 H -1.839666 -4.586056 1.947004 0
M  V30 25 H -2.873215 -3.235497 2.459989 0
M  V30 26 H -3.233622 -3.994075 0.884027 0
M  V30 27 H -0.847472 -4.477869 -0.043877 0
M  V30 28 H 1.099365 -3.881070 -0.933894 0
M  V30 29 H 1.222420 -2.643406 0.302995 0
M  V30 30 H 0.066429 -2.543605 -2.550460 0
M  V30 31 H 1.856249 -1.349793 -2.941114 0
M  V30 32 H -0.117390 -0.162547 -2.452114 0
M  V30 33 H -1.324204 -0.876404 -1.409691 0
M  V30 34 H 2.698974 0.700014 -1.458488 0
M  V30 35 H 4.307332 2.176020 -0.467265 0
M  V30 36 H 3.635208 3.350868 1.632277 0
M  V30 37 H 2.138139 3.832203 3.321655 0
M  V30 38 H -0.045099 3.515990 4.359674 0
M  V30 39 H -1.711170 1.985588 3.351309 0
M  V30 40 H -1.134944 0.807680 1.316339 0
M  V30 END ATOM
M  V30 BEGIN BOND
M  V30 1 1 1 2
M  V30 2 1 2 3
M  V30 3 1 2 4
M  V30 4 1 4 5
M  V30 5 1 5 6
M  V30 6 1 6 7
M  V30 7 1 6 8
M  V30 8 1 8 9
M  V30 9 1 9 10
M  V30 10 2 10 11
M  V30 11 1 11 12
M  V30 12 2 12 13
M  V30 13 1 13 14
M  V30 14 2 14 15
M  V30 15 1 15 16
M  V30 16 2 16 17
M  V30 17 1 17 18
M  V30 18 2 18 19
M  V30 19 1 19 10
M  V30 20 1 19 14
M  V30 21 1 1 20
M  V30 22 1 1 21
M  V30 23 1 1 22
M  V30 24 1 2 23
M  V30 25 1 3 24
M  V30 26 1 3 25
M  V30 27 1 3 26
M  V30 28 1 4 27
M  V30 29 1 5 28
M  V30 30 1 5 29
M  V30 31 1 6 30
M  V30 32 1 7 31
M  V30 33 1 8 32
M  V30 34 1 8 33
M  V30 35 1 11 34
M  V30 36 1 12 35
M  V30 37 1 13 36
M  V30 38 1 15 37
M  V30 39 1 16 38
M  V30 40 1 17 39
M  V30 41 1 18 40
M  V30 END BOND
M  V30 END CTAB
M  END
>  <Dataset>  (811) 
OralDrugs

>  <Ligand_Instance>  (811) 
nan

>  <PDB_ID>  (811) 
nan

>  <Standardized_SMILES>  (811) 
CC(C)NCC(O)COc1cccc2ccccc12

>  <Name>  (811) 
Propranolol

>  <Pocket>  (811) 
nan

>  <ATP_Site>  (811) 
nan

>  <Peripheral>  (811) 
nan

>  <Num_H_Atoms_ProtBoundConf>  (811) 
nan

>  <Num_Resolved_Atoms>  (811) 
nan

>  <Num_Not_Resolved_Atoms>  (811) 
nan

$$$$
CHEMBL1518
     RDKit          3D

  0  0  0  0  0  0  0  0  0  0999 V3000
M  V30 BEGIN CTAB
M  V30 COUNTS 21 21 0 0 0
M  V30 BEGIN ATOM
M  V30 1 C 0.827319 2.074992 2.174628 0
M  V30 2 C 0.711178 0.753255 2.862361 0
M  V30 3 C -0.246582 -0.138905 2.127165 0
M  V30 4 C 0.168460 -0.406515 0.737462 0
M  V30 5 C 0.984676 -1.523348 0.529286 0
M  V30 6 C 1.453953 -1.898537 -0.731569 0
M  V30 7 O 2.186295 -2.913689 -0.862386 0
M  V30 8 N 1.081551 -1.120864 -1.782833 0
M  V30 9 C 0.294433 -0.043298 -1.584423 0
M  V30 10 S -0.143742 0.884240 -2.874740 0
M  V30 11 N -0.147872 0.302466 -0.362429 0
M  V30 12 H -0.152339 2.398182 1.751106 0
M  V30 13 H 1.107567 2.884410 2.894038 0
M  V30 14 H 1.556272 2.085769 1.324259 0
M  V30 15 H 1.682309 0.226251 2.917762 0
M  V30 16 H 0.330099 0.928421 3.874982 0
M  V30 17 H -1.248329 0.346618 2.079924 0
M  V30 18 H -0.381905 -1.106983 2.662612 0
M  V30 19 H 1.303301 -2.170318 1.349892 0
M  V30 20 H 1.437891 -1.410044 -2.721886 0
M  V30 21 H -0.756695 1.133062 -0.196655 0
M  V30 END ATOM
M  V30 BEGIN BOND
M  V30 1 1 1 2
M  V30 2 1 2 3
M  V30 3 1 3 4
M  V30 4 2 4 5
M  V30 5 1 5 6
M  V30 6 2 6 7
M  V30 7 1 6 8
M  V30 8 1 8 9
M  V30 9 2 9 10
M  V30 10 1 9 11
M  V30 11 1 11 4
M  V30 12 1 1 12
M  V30 13 1 1 13
M  V30 14 1 1 14
M  V30 15 1 2 15
M  V30 16 1 2 16
M  V30 17 1 3 17
M  V30 18 1 3 18
M  V30 19 1 5 19
M  V30 20 1 8 20
M  V30 21 1 11 21
M  V30 END BOND
M  V30 END CTAB
M  END
>  <Dataset>  (812) 
OralDrugs

>  <Ligand_Instance>  (812) 
nan

>  <PDB_ID>  (812) 
nan

>  <Standardized_SMILES>  (812) 
CCCc1cc(=O)[nH]c(=S)[nH]1

>  <Name>  (812) 
Propylthiouracil

>  <Pocket>  (812) 
nan

>  <ATP_Site>  (812) 
nan

>  <Peripheral>  (812) 
nan

>  <Num_H_Atoms_ProtBoundConf>  (812) 
nan

>  <Num_Resolved_Atoms>  (812) 
nan

>  <Num_Not_Resolved_Atoms>  (812) 
nan

$$$$
CHEMBL1201273
     RDKit          3D

  0  0  0  0  0  0  0  0  0  0999 V3000
M  V30 BEGIN CTAB
M  V30 COUNTS 45 47 0 0 0
M  V30 BEGIN ATOM
M  V30 1 C 0.626057 -3.997236 1.097239 0
M  V30 2 C 1.266595 -2.699964 0.684875 0
M  V30 3 C 1.193452 -2.574150 -0.821874 0
M  V30 4 C 1.803755 -1.323314 -1.304000 0
M  V30 5 C 3.169546 -1.413973 -1.592485 0
M  V30 6 C 3.919860 -0.353997 -2.056307 0
M  V30 7 C 3.316969 0.870278 -2.254790 0
M  V30 8 C 1.978020 0.973877 -1.976028 0
M  V30 9 C 1.231429 -0.085893 -1.513114 0
M  V30 10 O 1.547374 2.260184 -2.231124 0
M  V30 11 C 2.707456 3.073309 -2.398945 0
M  V30 12 O 3.699696 2.113113 -2.684568 0
M  V30 13 N 0.687867 -1.542522 1.289380 0
M  V30 14 C 0.743410 -1.521013 2.725473 0
M  V30 15 C 0.119911 -0.280208 3.331053 0
M  V30 16 O 0.797459 0.839348 2.862327 0
M  V30 17 C -1.323207 -0.168444 3.044844 0
M  V30 18 C -2.142195 -1.154667 2.534523 0
M  V30 19 C -3.493167 -0.864027 2.328210 0
M  V30 20 C -4.023924 0.366992 2.617298 0
M  V30 21 O -5.378703 0.568504 2.380595 0
M  V30 22 C -3.190461 1.341902 3.127113 0
M  V30 23 O -3.781454 2.588910 3.408013 0
M  V30 24 C -1.849063 1.092069 3.344808 0
M  V30 25 H -0.480094 -3.951437 1.138672 0
M  V30 26 H 0.862012 -4.738827 0.296674 0
M  V30 27 H 1.099262 -4.392337 2.007120 0
M  V30 28 H 2.342591 -2.764318 0.950210 0
M  V30 29 H 0.119977 -2.549606 -1.136879 0
M  V30 30 H 1.654443 -3.447043 -1.329542 0
M  V30 31 H 3.729621 -2.348969 -1.463768 0
M  V30 32 H 4.980781 -0.465197 -2.269178 0
M  V30 33 H 0.166064 -0.066705 -1.273929 0
M  V30 34 H 2.962901 3.572807 -1.457404 0
M  V30 35 H 2.578923 3.790034 -3.229574 0
M  V30 36 H 1.091919 -0.678452 0.867902 0
M  V30 37 H 0.432929 -2.446960 3.202436 0
M  V30 38 H 1.841054 -1.431610 2.966048 0
M  V30 39 H 0.260985 -0.345399 4.425378 0
M  V30 40 H 0.542179 1.098055 1.955985 0
M  V30 41 H -1.624280 -2.062679 2.349618 0
M  V30 42 H -4.056209 -1.683834 1.930366 0
M  V30 43 H -5.718124 0.493085 1.427397 0
M  V30 44 H -4.322363 3.018268 2.669776 0
M  V30 45 H -1.262420 1.919043 3.750325 0
M  V30 END ATOM
M  V30 BEGIN BOND
M  V30 1 1 1 2
M  V30 2 1 2 3
M  V30 3 1 3 4
M  V30 4 2 4 5
M  V30 5 1 5 6
M  V30 6 2 6 7
M  V30 7 1 7 8
M  V30 8 2 8 9
M  V30 9 1 8 10
M  V30 10 1 10 11
M  V30 11 1 11 12
M  V30 12 1 2 13
M  V30 13 1 13 14
M  V30 14 1 14 15
M  V30 15 1 15 16
M  V30 16 1 15 17
M  V30 17 2 17 18
M  V30 18 1 18 19
M  V30 19 2 19 20
M  V30 20 1 20 21
M  V30 21 1 20 22
M  V30 22 1 22 23
M  V30 23 2 22 24
M  V30 24 1 9 4
M  V30 25 1 24 17
M  V30 26 1 12 7
M  V30 27 1 1 25
M  V30 28 1 1 26
M  V30 29 1 1 27
M  V30 30 1 2 28
M  V30 31 1 3 29
M  V30 32 1 3 30
M  V30 33 1 5 31
M  V30 34 1 6 32
M  V30 35 1 9 33
M  V30 36 1 11 34
M  V30 37 1 11 35
M  V30 38 1 13 36
M  V30 39 1 14 37
M  V30 40 1 14 38
M  V30 41 1 15 39
M  V30 42 1 16 40
M  V30 43 1 18 41
M  V30 44 1 19 42
M  V30 45 1 21 43
M  V30 46 1 23 44
M  V30 47 1 24 45
M  V30 END BOND
M  V30 END CTAB
M  END
>  <Dataset>  (813) 
OralDrugs

>  <Ligand_Instance>  (813) 
nan

>  <PDB_ID>  (813) 
nan

>  <Standardized_SMILES>  (813) 
CC(Cc1ccc2c(c1)OCO2)NCC(O)c1ccc(O)c(O)c1

>  <Name>  (813) 
Protokylol

>  <Pocket>  (813) 
nan

>  <ATP_Site>  (813) 
nan

>  <Peripheral>  (813) 
nan

>  <Num_H_Atoms_ProtBoundConf>  (813) 
nan

>  <Num_Resolved_Atoms>  (813) 
nan

>  <Num_Not_Resolved_Atoms>  (813) 
nan

$$$$
CHEMBL668
     RDKit          3D

  0  0  0  0  0  0  0  0  0  0999 V3000
M  V30 BEGIN CTAB
M  V30 COUNTS 41 43 0 0 0
M  V30 BEGIN ATOM
M  V30 1 C -1.729363 -4.630612 3.077120 0
M  V30 2 N -0.458360 -3.986825 2.802539 0
M  V30 3 C -0.557121 -3.134374 1.613563 0
M  V30 4 C 0.784611 -2.521411 1.413005 0
M  V30 5 C 0.920621 -1.604820 0.249155 0
M  V30 6 C 0.012456 -0.396101 0.278542 0
M  V30 7 C 0.338683 0.352183 -0.990112 0
M  V30 8 C -0.630811 0.227351 -1.967309 0
M  V30 9 C -0.525311 0.827844 -3.201869 0
M  V30 10 C 0.588999 1.591581 -3.495799 0
M  V30 11 C 1.589351 1.753341 -2.562534 0
M  V30 12 C 1.421785 1.126056 -1.347304 0
M  V30 13 C 2.564701 1.387748 -0.446175 0
M  V30 14 C 2.569599 1.445425 0.897079 0
M  V30 15 C 1.404995 1.255256 1.788636 0
M  V30 16 C 1.548837 1.979209 2.944676 0
M  V30 17 C 0.550427 1.919100 3.879243 0
M  V30 18 C -0.559565 1.139543 3.632122 0
M  V30 19 C -0.654446 0.431079 2.453195 0
M  V30 20 C 0.323349 0.449429 1.465412 0
M  V30 21 H -1.511291 -5.693416 3.328820 0
M  V30 22 H -2.333604 -4.604240 2.134469 0
M  V30 23 H -2.213312 -4.084216 3.894561 0
M  V30 24 H 0.310346 -4.692835 2.681547 0
M  V30 25 H -1.400028 -2.461400 1.732199 0
M  V30 26 H -0.799005 -3.827654 0.780637 0
M  V30 27 H 1.498099 -3.362597 1.236802 0
M  V30 28 H 1.157133 -2.022913 2.330565 0
M  V30 29 H 1.956366 -1.202004 0.274833 0
M  V30 30 H 0.769334 -2.100454 -0.721324 0
M  V30 31 H -1.051092 -0.620172 0.241333 0
M  V30 32 H -1.502915 -0.374449 -1.727991 0
M  V30 33 H -1.315585 0.700252 -3.939383 0
M  V30 34 H 0.704262 2.076308 -4.453364 0
M  V30 35 H 2.507557 2.343037 -2.714646 0
M  V30 36 H 3.514755 1.554373 -0.943266 0
M  V30 37 H 3.502019 1.650110 1.388044 0
M  V30 38 H 2.456942 2.576298 3.074520 0
M  V30 39 H 0.682428 2.491433 4.774128 0
M  V30 40 H -1.345609 1.100161 4.381927 0
M  V30 41 H -1.537400 -0.152676 2.317484 0
M  V30 END ATOM
M  V30 BEGIN BOND
M  V30 1 1 1 2
M  V30 2 1 2 3
M  V30 3 1 3 4
M  V30 4 1 4 5
M  V30 5 1 5 6
M  V30 6 1 6 7
M  V30 7 2 7 8
M  V30 8 1 8 9
M  V30 9 2 9 10
M  V30 10 1 10 11
M  V30 11 2 11 12
M  V30 12 1 12 13
M  V30 13 2 13 14
M  V30 14 1 14 15
M  V30 15 2 15 16
M  V30 16 1 16 17
M  V30 17 2 17 18
M  V30 18 1 18 19
M  V30 19 2 19 20
M  V30 20 1 20 6
M  V30 21 1 12 7
M  V30 22 1 20 15
M  V30 23 1 1 21
M  V30 24 1 1 22
M  V30 25 1 1 23
M  V30 26 1 2 24
M  V30 27 1 3 25
M  V30 28 1 3 26
M  V30 29 1 4 27
M  V30 30 1 4 28
M  V30 31 1 5 29
M  V30 32 1 5 30
M  V30 33 1 6 31
M  V30 34 1 8 32
M  V30 35 1 9 33
M  V30 36 1 10 34
M  V30 37 1 11 35
M  V30 38 1 13 36
M  V30 39 1 14 37
M  V30 40 1 16 38
M  V30 41 1 17 39
M  V30 42 1 18 40
M  V30 43 1 19 41
M  V30 END BOND
M  V30 END CTAB
M  END
>  <Dataset>  (814) 
OralDrugs

>  <Ligand_Instance>  (814) 
nan

>  <PDB_ID>  (814) 
nan

>  <Standardized_SMILES>  (814) 
CNCCCC1c2ccccc2C=Cc2ccccc21

>  <Name>  (814) 
Protriptyline

>  <Pocket>  (814) 
nan

>  <ATP_Site>  (814) 
nan

>  <Peripheral>  (814) 
nan

>  <Num_H_Atoms_ProtBoundConf>  (814) 
nan

>  <Num_Resolved_Atoms>  (814) 
nan

>  <Num_Not_Resolved_Atoms>  (814) 
nan

$$$$
CHEMBL117287
     RDKit          3D

  0  0  0  0  0  0  0  0  0  0999 V3000
M  V30 BEGIN CTAB
M  V30 COUNTS 51 53 0 0 0
M  V30 BEGIN ATOM
M  V30 1 C 3.062428 -7.594659 0.226280 0
M  V30 2 O 1.779052 -7.908981 -0.138895 0
M  V30 3 C 0.833431 -6.931363 0.131178 0
M  V30 4 C 1.108039 -5.627472 -0.565846 0
M  V30 5 C -0.025463 -4.665202 -0.176194 0
M  V30 6 N 0.174664 -3.391704 -0.809331 0
M  V30 7 C 1.310671 -2.664166 -0.313708 0
M  V30 8 C 1.022527 -1.180566 -0.210967 0
M  V30 9 C -0.108734 -1.011850 0.772776 0
M  V30 10 N -0.334509 0.411301 0.890617 0
M  V30 11 C -0.136565 1.174240 2.062190 0
M  V30 12 O 0.268130 0.484682 3.030696 0
M  V30 13 C -0.361218 2.606678 2.190750 0
M  V30 14 C -0.103474 3.172794 3.442459 0
M  V30 15 C -0.279819 4.520339 3.685540 0
M  V30 16 Cl 0.055934 5.172366 5.257100 0
M  V30 17 C -0.724880 5.273333 2.621907 0
M  V30 18 N -0.929736 6.690771 2.815398 0
M  V30 19 C -0.992571 4.761522 1.371067 0
M  V30 20 C -0.804663 3.394385 1.154199 0
M  V30 21 O -1.133199 3.127764 -0.154337 0
M  V30 22 C -1.579281 4.269877 -0.846029 0
M  V30 23 C -1.472598 5.414831 0.127634 0
M  V30 24 C -1.291819 -1.773716 0.316368 0
M  V30 25 C -1.018363 -2.595164 -0.894563 0
M  V30 26 H 3.731437 -8.447542 -0.030800 0
M  V30 27 H 3.387135 -6.660372 -0.284880 0
M  V30 28 H 3.135284 -7.453241 1.322160 0
M  V30 29 H 0.840024 -6.802801 1.237453 0
M  V30 30 H -0.149179 -7.372399 -0.181709 0
M  V30 31 H 1.228286 -5.725509 -1.646809 0
M  V30 32 H 2.022186 -5.178441 -0.139264 0
M  V30 33 H 0.039441 -4.563926 0.923691 0
M  V30 34 H -0.965857 -5.110675 -0.537565 0
M  V30 35 H 1.544727 -3.032444 0.701768 0
M  V30 36 H 2.184623 -2.812724 -0.958881 0
M  V30 37 H 1.881341 -0.614700 0.180699 0
M  V30 38 H 0.688092 -0.758520 -1.183658 0
M  V30 39 H 0.247926 -1.437784 1.754254 0
M  V30 40 H -0.669775 0.879271 0.024244 0
M  V30 41 H 0.248842 2.560385 4.272041 0
M  V30 42 H -1.294001 7.140408 3.693128 0
M  V30 43 H -0.738974 7.429867 2.105250 0
M  V30 44 H -0.939956 4.392318 -1.737618 0
M  V30 45 H -2.625392 4.072216 -1.172838 0
M  V30 46 H -0.817309 6.238439 -0.216101 0
M  V30 47 H -2.500722 5.807625 0.347733 0
M  V30 48 H -1.669260 -2.489618 1.105838 0
M  V30 49 H -2.136628 -1.075797 0.099181 0
M  V30 50 H -0.894417 -1.952974 -1.801986 0
M  V30 51 H -1.848152 -3.287806 -1.136960 0
M  V30 END ATOM
M  V30 BEGIN BOND
M  V30 1 1 1 2
M  V30 2 1 2 3
M  V30 3 1 3 4
M  V30 4 1 4 5
M  V30 5 1 5 6
M  V30 6 1 6 7
M  V30 7 1 7 8
M  V30 8 1 8 9
M  V30 9 1 9 10
M  V30 10 1 10 11
M  V30 11 2 11 12
M  V30 12 1 11 13
M  V30 13 2 13 14
M  V30 14 1 14 15
M  V30 15 1 15 16
M  V30 16 2 15 17
M  V30 17 1 17 18
M  V30 18 1 17 19
M  V30 19 2 19 20
M  V30 20 1 20 21
M  V30 21 1 21 22
M  V30 22 1 22 23
M  V30 23 1 9 24
M  V30 24 1 24 25
M  V30 25 1 25 6
M  V30 26 1 20 13
M  V30 27 1 23 19
M  V30 28 1 1 26
M  V30 29 1 1 27
M  V30 30 1 1 28
M  V30 31 1 3 29
M  V30 32 1 3 30
M  V30 33 1 4 31
M  V30 34 1 4 32
M  V30 35 1 5 33
M  V30 36 1 5 34
M  V30 37 1 7 35
M  V30 38 1 7 36
M  V30 39 1 8 37
M  V30 40 1 8 38
M  V30 41 1 9 39
M  V30 42 1 10 40
M  V30 43 1 14 41
M  V30 44 1 18 42
M  V30 45 1 18 43
M  V30 46 1 22 44
M  V30 47 1 22 45
M  V30 48 1 23 46
M  V30 49 1 23 47
M  V30 50 1 24 48
M  V30 51 1 24 49
M  V30 52 1 25 50
M  V30 53 1 25 51
M  V30 END BOND
M  V30 END CTAB
M  END
>  <Dataset>  (815) 
OralDrugs

>  <Ligand_Instance>  (815) 
nan

>  <PDB_ID>  (815) 
nan

>  <Standardized_SMILES>  (815) 
COCCCN1CCC(NC(=O)c2cc(Cl)c(N)c3c2OCC3)CC1

>  <Name>  (815) 
Prucalopride

>  <Pocket>  (815) 
nan

>  <ATP_Site>  (815) 
nan

>  <Peripheral>  (815) 
nan

>  <Num_H_Atoms_ProtBoundConf>  (815) 
nan

>  <Num_Resolved_Atoms>  (815) 
nan

>  <Num_Not_Resolved_Atoms>  (815) 
nan

$$$$
CHEMBL1590
     RDKit          3D

  0  0  0  0  0  0  0  0  0  0999 V3000
M  V30 BEGIN CTAB
M  V30 COUNTS 27 27 0 0 0
M  V30 BEGIN ATOM
M  V30 1 C 0.397672 0.640051 3.798939 0
M  V30 2 N 0.856110 0.459520 2.433045 0
M  V30 3 C 0.684530 -0.918223 2.105338 0 CFG=1
M  V30 4 C -0.789013 -1.231663 2.243194 0
M  V30 5 C 1.204114 -1.348161 0.779373 0 CFG=1
M  V30 6 O 0.921014 -2.733759 0.696251 0
M  V30 7 C 0.581232 -0.731217 -0.390638 0
M  V30 8 C -0.177647 0.405134 -0.483766 0
M  V30 9 C -0.697434 0.860017 -1.676184 0
M  V30 10 C -0.462277 0.165820 -2.840838 0
M  V30 11 C 0.297448 -0.984704 -2.792540 0
M  V30 12 C 0.807122 -1.420852 -1.588877 0
M  V30 13 H 0.134884 -0.314843 4.303384 0
M  V30 14 H 1.185309 1.098041 4.440571 0
M  V30 15 H -0.534071 1.255120 3.804209 0
M  V30 16 H 1.832138 0.813238 2.364388 0
M  V30 17 H 1.286264 -1.495685 2.868065 0
M  V30 18 H -1.400812 -0.314743 2.304004 0
M  V30 19 H -0.923489 -1.838827 3.146070 0
M  V30 20 H -1.114258 -1.775953 1.337415 0
M  V30 21 H 2.318521 -1.296448 0.782363 0
M  V30 22 H 0.120010 -2.884095 0.150814 0
M  V30 23 H -0.338300 0.914777 0.437923 0
M  V30 24 H -1.286125 1.771648 -1.643390 0
M  V30 25 H -0.905542 0.589279 -3.733735 0
M  V30 26 H 0.459946 -1.498176 -3.715145 0
M  V30 27 H 1.388315 -2.329660 -1.651996 0
M  V30 END ATOM
M  V30 BEGIN BOND
M  V30 1 1 1 2
M  V30 2 1 2 3
M  V30 3 1 3 4
M  V30 4 1 3 5
M  V30 5 1 5 6
M  V30 6 1 5 7
M  V30 7 2 7 8
M  V30 8 1 8 9
M  V30 9 2 9 10
M  V30 10 1 10 11
M  V30 11 2 11 12
M  V30 12 1 12 7
M  V30 13 1 1 13
M  V30 14 1 1 14
M  V30 15 1 1 15
M  V30 16 1 2 16
M  V30 17 1 3 17 CFG=1
M  V30 18 1 4 18
M  V30 19 1 4 19
M  V30 20 1 4 20
M  V30 21 1 5 21 CFG=1
M  V30 22 1 6 22
M  V30 23 1 8 23
M  V30 24 1 9 24
M  V30 25 1 10 25
M  V30 26 1 11 26
M  V30 27 1 12 27
M  V30 END BOND
M  V30 END CTAB
M  END
>  <Dataset>  (816) 
OralDrugs

>  <Ligand_Instance>  (816) 
nan

>  <PDB_ID>  (816) 
nan

>  <Standardized_SMILES>  (816) 
CN[C@@H](C)[C@@H](O)c1ccccc1

>  <Name>  (816) 
Pseudoephedrine

>  <Pocket>  (816) 
nan

>  <ATP_Site>  (816) 
nan

>  <Peripheral>  (816) 
nan

>  <Num_H_Atoms_ProtBoundConf>  (816) 
nan

>  <Num_Resolved_Atoms>  (816) 
nan

>  <Num_Not_Resolved_Atoms>  (816) 
nan

$$$$
CHEMBL1115
     RDKit          3D

  0  0  0  0  0  0  0  0  0  0999 V3000
M  V30 BEGIN CTAB
M  V30 COUNTS 26 26 0 0 0
M  V30 BEGIN ATOM
M  V30 1 C 3.235305 0.305208 2.554696 0
M  V30 2 N 1.933893 -0.200502 3.016357 0
M  V30 3 C 1.883982 -0.653909 4.394295 0
M  V30 4 C 0.800035 -0.246312 2.180966 0
M  V30 5 O -0.331459 -0.672481 2.540124 0
M  V30 6 O 0.835828 0.177368 0.883493 0
M  V30 7 C -0.238012 0.158365 0.015787 0
M  V30 8 C -1.156023 1.173546 -0.170050 0
M  V30 9 C -2.190980 1.028345 -1.074726 0
M  V30 10 C -2.242868 -0.175251 -1.764905 0
M  V30 11 N -1.353952 -1.168712 -1.590594 0 CHG=1 VAL=4
M  V30 12 C -1.575183 -2.350871 -2.404440 0
M  V30 13 C -0.350622 -1.001757 -0.699446 0
M  V30 14 H 3.851004 0.640517 3.404893 0
M  V30 15 H 3.775254 -0.474155 1.986783 0
M  V30 16 H 3.001422 1.165511 1.892986 0
M  V30 17 H 2.359894 0.071881 5.091641 0
M  V30 18 H 2.358990 -1.662699 4.437951 0
M  V30 19 H 0.819088 -0.760712 4.666737 0
M  V30 20 H -1.013451 2.071052 0.427550 0
M  V30 21 H -2.906096 1.824426 -1.216640 0
M  V30 22 H -3.080554 -0.242062 -2.469796 0
M  V30 23 H -1.776091 -1.986764 -3.429944 0
M  V30 24 H -2.460299 -2.869461 -1.966932 0
M  V30 25 H -0.711930 -3.033751 -2.356493 0
M  V30 26 H 0.308780 -1.853750 -0.632147 0
M  V30 END ATOM
M  V30 BEGIN BOND
M  V30 1 1 1 2
M  V30 2 1 2 3
M  V30 3 1 2 4
M  V30 4 2 4 5
M  V30 5 1 4 6
M  V30 6 1 6 7
M  V30 7 2 7 8
M  V30 8 1 8 9
M  V30 9 2 9 10
M  V30 10 1 10 11
M  V30 11 1 11 12
M  V30 12 2 11 13
M  V30 13 1 13 7
M  V30 14 1 1 14
M  V30 15 1 1 15
M  V30 16 1 1 16
M  V30 17 1 3 17
M  V30 18 1 3 18
M  V30 19 1 3 19
M  V30 20 1 8 20
M  V30 21 1 9 21
M  V30 22 1 10 22
M  V30 23 1 12 23
M  V30 24 1 12 24
M  V30 25 1 12 25
M  V30 26 1 13 26
M  V30 END BOND
M  V30 END CTAB
M  END
>  <Dataset>  (817) 
OralDrugs

>  <Ligand_Instance>  (817) 
nan

>  <PDB_ID>  (817) 
nan

>  <Standardized_SMILES>  (817) 
CN(C)C(=O)Oc1ccc[n+](C)c1

>  <Name>  (817) 
Pyridostigmine

>  <Pocket>  (817) 
nan

>  <ATP_Site>  (817) 
nan

>  <Peripheral>  (817) 
nan

>  <Num_H_Atoms_ProtBoundConf>  (817) 
nan

>  <Num_Resolved_Atoms>  (817) 
nan

>  <Num_Not_Resolved_Atoms>  (817) 
nan

$$$$
CHEMBL1364
     RDKit          3D

  0  0  0  0  0  0  0  0  0  0999 V3000
M  V30 BEGIN CTAB
M  V30 COUNTS 23 23 0 0 0
M  V30 BEGIN ATOM
M  V30 1 C 1.068304 2.586977 2.900170 0
M  V30 2 C 1.014708 1.334329 2.055980 0
M  V30 3 N 1.996294 0.423188 2.244565 0
M  V30 4 C 1.975568 -0.702914 1.514393 0
M  V30 5 C 0.977933 -0.923642 0.594157 0
M  V30 6 C 1.006517 -2.181669 -0.181939 0
M  V30 7 O 1.489273 -1.965912 -1.486917 0
M  V30 8 C -0.035465 -0.005934 0.385399 0
M  V30 9 C -1.108882 -0.220475 -0.587140 0
M  V30 10 O -2.069458 -1.137297 -0.130405 0
M  V30 11 C -0.023553 1.157948 1.133454 0
M  V30 12 O -0.934862 2.168505 1.063309 0
M  V30 13 H 0.412841 3.319426 2.412537 0
M  V30 14 H 2.081040 2.940980 3.074570 0
M  V30 15 H 0.575992 2.324169 3.878078 0
M  V30 16 H 2.786171 -1.388988 1.718269 0
M  V30 17 H -0.011941 -2.615440 -0.284457 0
M  V30 18 H 1.678070 -2.921164 0.288170 0
M  V30 19 H 1.718393 -2.823251 -1.913915 0
M  V30 20 H -0.715417 -0.578703 -1.574008 0
M  V30 21 H -1.665399 0.711029 -0.782746 0
M  V30 22 H -1.993192 -1.328129 0.821960 0
M  V30 23 H -1.708289 2.303807 0.465629 0
M  V30 END ATOM
M  V30 BEGIN BOND
M  V30 1 1 1 2
M  V30 2 2 2 3
M  V30 3 1 3 4
M  V30 4 2 4 5
M  V30 5 1 5 6
M  V30 6 1 6 7
M  V30 7 1 5 8
M  V30 8 1 8 9
M  V30 9 1 9 10
M  V30 10 2 8 11
M  V30 11 1 11 12
M  V30 12 1 11 2
M  V30 13 1 1 13
M  V30 14 1 1 14
M  V30 15 1 1 15
M  V30 16 1 4 16
M  V30 17 1 6 17
M  V30 18 1 6 18
M  V30 19 1 7 19
M  V30 20 1 9 20
M  V30 21 1 9 21
M  V30 22 1 10 22
M  V30 23 1 12 23
M  V30 END BOND
M  V30 END CTAB
M  END
>  <Dataset>  (818) 
OralDrugs

>  <Ligand_Instance>  (818) 
nan

>  <PDB_ID>  (818) 
nan

>  <Standardized_SMILES>  (818) 
Cc1ncc(CO)c(CO)c1O

>  <Name>  (818) 
Pyridoxine

>  <Pocket>  (818) 
nan

>  <ATP_Site>  (818) 
nan

>  <Peripheral>  (818) 
nan

>  <Num_H_Atoms_ProtBoundConf>  (818) 
nan

>  <Num_Resolved_Atoms>  (818) 
nan

>  <Num_Not_Resolved_Atoms>  (818) 
nan

$$$$
CHEMBL511
     RDKit          3D

  0  0  0  0  0  0  0  0  0  0999 V3000
M  V30 BEGIN CTAB
M  V30 COUNTS 44 45 0 0 0
M  V30 BEGIN ATOM
M  V30 1 C -3.303691 -3.762962 4.499870 0
M  V30 2 O -3.439489 -3.476161 3.121635 0
M  V30 3 C -2.311843 -3.057163 2.446978 0
M  V30 4 C -2.600117 -2.800039 1.100968 0
M  V30 5 C -1.638034 -2.364820 0.227497 0
M  V30 6 C -0.345197 -2.153861 0.604053 0
M  V30 7 C 0.839410 -1.597986 -0.118905 0
M  V30 8 N 0.891015 -0.204723 0.385243 0
M  V30 9 C -0.290797 0.599178 0.121173 0
M  V30 10 C -0.393263 0.938622 -1.350703 0
M  V30 11 N 0.708875 1.719827 -1.812267 0
M  V30 12 C 0.743787 3.058296 -1.283875 0
M  V30 13 C 1.138205 1.541702 -3.146800 0
M  V30 14 C 2.130345 0.142475 1.045058 0
M  V30 15 C 2.234438 0.905688 2.191422 0
M  V30 16 C 3.525880 1.152752 2.648343 0
M  V30 17 C 4.651854 0.682851 2.024767 0
M  V30 18 C 4.498810 -0.075487 0.883984 0
M  V30 19 N 3.255167 -0.316152 0.439725 0
M  V30 20 C -0.011477 -2.406142 1.954718 0
M  V30 21 C -1.000809 -2.842168 2.807717 0
M  V30 22 H -4.253882 -4.030993 4.993836 0
M  V30 23 H -2.487317 -4.456884 4.720594 0
M  V30 24 H -2.979931 -2.777346 4.954195 0
M  V30 25 H -3.559129 -2.910746 0.639314 0
M  V30 26 H -1.768715 -2.141823 -0.819450 0
M  V30 27 H 0.632570 -1.541198 -1.179074 0
M  V30 28 H 1.725181 -2.163218 0.136230 0
M  V30 29 H -0.345476 1.480069 0.766623 0
M  V30 30 H -1.182332 -0.008064 0.356941 0
M  V30 31 H -1.339097 1.448877 -1.617917 0
M  V30 32 H -0.387110 -0.009707 -1.915761 0
M  V30 33 H -0.300620 3.328170 -0.967857 0
M  V30 34 H 1.499626 3.221899 -0.507354 0
M  V30 35 H 0.979122 3.740051 -2.122834 0
M  V30 36 H 0.299492 1.531349 -3.887381 0
M  V30 37 H 1.869807 2.322462 -3.459919 0
M  V30 38 H 1.691243 0.567068 -3.238580 0
M  V30 39 H 1.314279 1.243572 2.634340 0
M  V30 40 H 3.604301 1.749636 3.551599 0
M  V30 41 H 5.646113 0.897370 2.408448 0
M  V30 42 H 5.363966 -0.475080 0.337419 0
M  V30 43 H 0.962819 -2.296788 2.423512 0
M  V30 44 H -0.870093 -3.073223 3.880063 0
M  V30 END ATOM
M  V30 BEGIN BOND
M  V30 1 1 1 2
M  V30 2 1 2 3
M  V30 3 2 3 4
M  V30 4 1 4 5
M  V30 5 2 5 6
M  V30 6 1 6 7
M  V30 7 1 7 8
M  V30 8 1 8 9
M  V30 9 1 9 10
M  V30 10 1 10 11
M  V30 11 1 11 12
M  V30 12 1 11 13
M  V30 13 1 8 14
M  V30 14 2 14 15
M  V30 15 1 15 16
M  V30 16 2 16 17
M  V30 17 1 17 18
M  V30 18 2 18 19
M  V30 19 1 6 20
M  V30 20 2 20 21
M  V30 21 1 21 3
M  V30 22 1 19 14
M  V30 23 1 1 22
M  V30 24 1 1 23
M  V30 25 1 1 24
M  V30 26 1 4 25
M  V30 27 1 5 26
M  V30 28 1 7 27
M  V30 29 1 7 28
M  V30 30 1 9 29
M  V30 31 1 9 30
M  V30 32 1 10 31
M  V30 33 1 10 32
M  V30 34 1 12 33
M  V30 35 1 12 34
M  V30 36 1 12 35
M  V30 37 1 13 36
M  V30 38 1 13 37
M  V30 39 1 13 38
M  V30 40 1 15 39
M  V30 41 1 16 40
M  V30 42 1 17 41
M  V30 43 1 18 42
M  V30 44 1 20 43
M  V30 45 1 21 44
M  V30 END BOND
M  V30 END CTAB
M  END
>  <Dataset>  (819) 
OralDrugs

>  <Ligand_Instance>  (819) 
nan

>  <PDB_ID>  (819) 
nan

>  <Standardized_SMILES>  (819) 
COc1ccc(CN(CCN(C)C)c2ccccn2)cc1

>  <Name>  (819) 
Pyrilamine

>  <Pocket>  (819) 
nan

>  <ATP_Site>  (819) 
nan

>  <Peripheral>  (819) 
nan

>  <Num_H_Atoms_ProtBoundConf>  (819) 
nan

>  <Num_Resolved_Atoms>  (819) 
nan

>  <Num_Not_Resolved_Atoms>  (819) 
nan

$$$$
CHEMBL36
     RDKit          3D

  0  0  0  0  0  0  0  0  0  0999 V3000
M  V30 BEGIN CTAB
M  V30 COUNTS 30 31 0 0 0
M  V30 BEGIN ATOM
M  V30 1 C -1.521572 -1.801054 2.572216 0
M  V30 2 C -0.003759 -1.809072 2.661932 0
M  V30 3 C 0.515803 -2.066730 1.283095 0
M  V30 4 N 0.986775 -3.300928 0.929934 0
M  V30 5 C 1.439489 -3.472475 -0.340247 0
M  V30 6 N 1.886878 -4.814283 -0.522587 0
M  V30 7 N 1.458313 -2.499527 -1.294101 0
M  V30 8 C 0.994550 -1.254909 -0.972811 0
M  V30 9 N 1.001081 -0.229101 -1.934827 0
M  V30 10 C 0.535222 -1.079998 0.316717 0
M  V30 11 C 0.050401 0.276692 0.610131 0
M  V30 12 C 1.068239 1.104092 1.093969 0
M  V30 13 C 0.807990 2.428022 1.426769 0
M  V30 14 C -0.470791 2.957061 1.285285 0
M  V30 15 Cl -0.904288 4.611981 1.676569 0
M  V30 16 C -1.417596 2.085568 0.805087 0
M  V30 17 C -1.204313 0.764894 0.462302 0
M  V30 18 H -1.873635 -1.846195 1.513862 0
M  V30 19 H -1.965415 -2.707499 3.079395 0
M  V30 20 H -1.977339 -0.917092 3.057812 0
M  V30 21 H 0.410061 -0.886397 3.114248 0
M  V30 22 H 0.302764 -2.672449 3.284234 0
M  V30 23 H 2.894612 -4.935489 -0.368737 0
M  V30 24 H 2.933641 -4.825521 -0.340516 0
M  V30 25 H 0.200079 0.454292 -1.985668 0
M  V30 26 H 1.729388 -0.029861 -2.653156 0
M  V30 27 H 2.107594 0.808983 1.249258 0
M  V30 28 H 1.576232 3.086550 1.801605 0
M  V30 29 H -2.432010 2.467910 0.680760 0
M  V30 30 H -1.925516 0.085394 0.090372 0
M  V30 END ATOM
M  V30 BEGIN BOND
M  V30 1 1 1 2
M  V30 2 1 2 3
M  V30 3 2 3 4
M  V30 4 1 4 5
M  V30 5 1 5 6
M  V30 6 2 5 7
M  V30 7 1 7 8
M  V30 8 1 8 9
M  V30 9 2 8 10
M  V30 10 1 10 11
M  V30 11 2 11 12
M  V30 12 1 12 13
M  V30 13 2 13 14
M  V30 14 1 14 15
M  V30 15 1 14 16
M  V30 16 2 16 17
M  V30 17 1 10 3
M  V30 18 1 17 11
M  V30 19 1 1 18
M  V30 20 1 1 19
M  V30 21 1 1 20
M  V30 22 1 2 21
M  V30 23 1 2 22
M  V30 24 1 6 23
M  V30 25 1 6 24
M  V30 26 1 9 25
M  V30 27 1 9 26
M  V30 28 1 12 27
M  V30 29 1 13 28
M  V30 30 1 16 29
M  V30 31 1 17 30
M  V30 END BOND
M  V30 END CTAB
M  END
>  <Dataset>  (820) 
OralDrugs

>  <Ligand_Instance>  (820) 
nan

>  <PDB_ID>  (820) 
nan

>  <Standardized_SMILES>  (820) 
CCc1nc(N)nc(N)c1-c1ccc(Cl)cc1

>  <Name>  (820) 
Pyrimethamine

>  <Pocket>  (820) 
nan

>  <ATP_Site>  (820) 
nan

>  <Peripheral>  (820) 
nan

>  <Num_H_Atoms_ProtBoundConf>  (820) 
nan

>  <Num_Resolved_Atoms>  (820) 
nan

>  <Num_Not_Resolved_Atoms>  (820) 
nan

$$$$
CHEMBL1201303
     RDKit          3D

  0  0  0  0  0  0  0  0  0  0999 V3000
M  V30 BEGIN CTAB
M  V30 COUNTS 57 60 0 0 0
M  V30 BEGIN ATOM
M  V30 1 C -0.696996 -6.817744 2.396105 0
M  V30 2 C -0.722632 -5.526211 1.669585 0
M  V30 3 C -0.158468 -4.367977 2.140381 0
M  V30 4 C -0.403491 -3.397365 1.163967 0
M  V30 5 C 0.046081 -2.025175 1.304058 0
M  V30 6 C -0.042873 -0.942801 0.560720 0
M  V30 7 C 0.463871 0.392981 0.830319 0
M  V30 8 C 1.144772 0.697803 1.987468 0
M  V30 9 C 1.637453 1.968016 2.268556 0
M  V30 10 C 1.398475 2.940355 1.290707 0
M  V30 11 C 1.877573 4.206372 1.550141 0
M  V30 12 C 1.671086 5.204729 0.624074 0
M  V30 13 N 2.156496 6.507280 0.876374 0
M  V30 14 C 2.869832 6.813015 2.095461 0
M  V30 15 C 1.936340 7.557009 -0.103164 0
M  V30 16 C 0.992195 4.917220 -0.537956 0
M  V30 17 C 0.547089 3.625195 -0.717953 0
M  V30 18 C 0.710462 2.570622 0.154095 0
M  V30 19 N 0.238077 1.331407 -0.104529 0 CHG=1 VAL=4
M  V30 20 C -0.434152 1.218497 -1.353039 0
M  V30 21 C -1.101052 -4.040523 0.168772 0
M  V30 22 C -1.594050 -3.453559 -1.077578 0
M  V30 23 N -1.298178 -5.355939 0.481212 0
M  V30 24 C -1.976708 -6.330183 -0.304813 0
M  V30 25 C -3.082725 -7.034523 0.124575 0
M  V30 26 C -3.732342 -7.976663 -0.645933 0
M  V30 27 C -3.233344 -8.221765 -1.929014 0
M  V30 28 C -2.129924 -7.558348 -2.433402 0
M  V30 29 C -1.553972 -6.636538 -1.582864 0
M  V30 30 H -1.227925 -6.618059 3.365635 0
M  V30 31 H -1.324603 -7.585757 1.898907 0
M  V30 32 H 0.325917 -7.135991 2.635837 0
M  V30 33 H 0.365217 -4.272279 3.090387 0
M  V30 34 H 0.588441 -1.760014 2.208179 0
M  V30 35 H -0.578062 -1.181629 -0.342152 0
M  V30 36 H 1.346334 -0.013014 2.754387 0
M  V30 37 H 2.165258 2.204406 3.165427 0
M  V30 38 H 2.405979 4.403633 2.468622 0
M  V30 39 H 2.857148 7.924688 2.293555 0
M  V30 40 H 3.945859 6.518232 2.053534 0
M  V30 41 H 2.405521 6.374416 2.994333 0
M  V30 42 H 2.532989 7.325791 -1.008332 0
M  V30 43 H 0.867942 7.591704 -0.438081 0
M  V30 44 H 2.206317 8.549844 0.277980 0
M  V30 45 H 0.847245 5.705766 -1.234144 0
M  V30 46 H 0.021674 3.497998 -1.664623 0
M  V30 47 H 0.304095 1.555621 -2.142879 0
M  V30 48 H -1.271885 1.944419 -1.454987 0
M  V30 49 H -0.749437 0.228992 -1.645243 0
M  V30 50 H -2.319269 -2.636127 -0.887544 0
M  V30 51 H -2.217128 -4.205793 -1.659680 0
M  V30 52 H -0.805898 -3.038615 -1.747200 0
M  V30 53 H -3.468751 -6.845013 1.116882 0
M  V30 54 H -4.591321 -8.525643 -0.316135 0
M  V30 55 H -3.689906 -8.952803 -2.603825 0
M  V30 56 H -1.733672 -7.737656 -3.422533 0
M  V30 57 H -0.674962 -6.096055 -1.961542 0
M  V30 END ATOM
M  V30 BEGIN BOND
M  V30 1 1 1 2
M  V30 2 2 2 3
M  V30 3 1 3 4
M  V30 4 1 4 5
M  V30 5 2 5 6
M  V30 6 1 6 7
M  V30 7 2 7 8
M  V30 8 1 8 9
M  V30 9 2 9 10
M  V30 10 1 10 11
M  V30 11 2 11 12
M  V30 12 1 12 13
M  V30 13 1 13 14
M  V30 14 1 13 15
M  V30 15 1 12 16
M  V30 16 2 16 17
M  V30 17 1 17 18
M  V30 18 2 18 19
M  V30 19 1 19 20
M  V30 20 2 4 21
M  V30 21 1 21 22
M  V30 22 1 21 23
M  V30 23 1 23 24
M  V30 24 2 24 25
M  V30 25 1 25 26
M  V30 26 2 26 27
M  V30 27 1 27 28
M  V30 28 2 28 29
M  V30 29 1 23 2
M  V30 30 1 29 24
M  V30 31 1 19 7
M  V30 32 1 18 10
M  V30 33 1 1 30
M  V30 34 1 1 31
M  V30 35 1 1 32
M  V30 36 1 3 33
M  V30 37 1 5 34
M  V30 38 1 6 35
M  V30 39 1 8 36
M  V30 40 1 9 37
M  V30 41 1 11 38
M  V30 42 1 14 39
M  V30 43 1 14 40
M  V30 44 1 14 41
M  V30 45 1 15 42
M  V30 46 1 15 43
M  V30 47 1 15 44
M  V30 48 1 16 45
M  V30 49 1 17 46
M  V30 50 1 20 47
M  V30 51 1 20 48
M  V30 52 1 20 49
M  V30 53 1 22 50
M  V30 54 1 22 51
M  V30 55 1 22 52
M  V30 56 1 25 53
M  V30 57 1 26 54
M  V30 58 1 27 55
M  V30 59 1 28 56
M  V30 60 1 29 57
M  V30 END BOND
M  V30 END CTAB
M  END
>  <Dataset>  (821) 
OralDrugs

>  <Ligand_Instance>  (821) 
nan

>  <PDB_ID>  (821) 
nan

>  <Standardized_SMILES>  (821) 
Cc1cc(/C=C/c2ccc3cc(N(C)C)ccc3[n+]2C)c(C)n1-c1ccccc1

>  <Name>  (821) 
Pyrvinium

>  <Pocket>  (821) 
nan

>  <ATP_Site>  (821) 
nan

>  <Peripheral>  (821) 
nan

>  <Num_H_Atoms_ProtBoundConf>  (821) 
nan

>  <Num_Resolved_Atoms>  (821) 
nan

>  <Num_Not_Resolved_Atoms>  (821) 
nan

$$$$
CHEMBL1200472
     RDKit          3D

  0  0  0  0  0  0  0  0  0  0999 V3000
M  V30 BEGIN CTAB
M  V30 COUNTS 36 38 0 0 0
M  V30 BEGIN ATOM
M  V30 1 F -1.103446 -3.626913 1.062903 0
M  V30 2 C 0.225696 -3.846191 0.997621 0
M  V30 3 C 0.914713 -4.940319 1.477603 0
M  V30 4 C 2.291181 -5.058869 1.351711 0
M  V30 5 C 2.972191 -4.014872 0.712700 0
M  V30 6 C 2.285975 -2.910403 0.227221 0
M  V30 7 C 0.911107 -2.831187 0.372971 0
M  V30 8 C 0.408766 -1.573483 -0.203352 0
M  V30 9 N 0.154201 -1.364773 -1.443442 0
M  V30 10 C -0.315287 -0.318738 -2.278213 0
M  V30 11 C -1.043098 0.773225 -1.589424 0
M  V30 12 S -2.162153 1.489191 -2.587192 0
M  V30 13 N -1.028093 1.364535 -0.264137 0
M  V30 14 C -1.651835 2.629236 -0.046160 0
M  V30 15 C -0.927170 3.815947 -0.624947 0
M  V30 16 F 0.362330 3.924884 -0.068151 0
M  V30 17 F -1.631998 4.990222 -0.444446 0
M  V30 18 F -0.687369 3.728542 -1.981743 0
M  V30 19 C -0.353108 0.665877 0.806127 0
M  V30 20 C -0.380302 1.464062 1.921107 0
M  V30 21 C 0.184644 1.061583 3.138464 0
M  V30 22 C 0.792062 -0.191266 3.206465 0
M  V30 23 Cl 1.515583 -0.750329 4.704540 0
M  V30 24 C 0.799198 -0.965505 2.059793 0
M  V30 25 C 0.244323 -0.580925 0.848327 0
M  V30 26 H 0.290997 -5.697537 1.961978 0
M  V30 27 H 2.776556 -5.935850 1.748114 0
M  V30 28 H 4.056161 -4.146566 0.634554 0
M  V30 29 H 2.956004 -2.195575 -0.237801 0
M  V30 30 H 0.496499 0.140682 -2.915494 0
M  V30 31 H -1.016322 -0.756809 -3.021659 0
M  V30 32 H -2.245552 2.789485 0.841510 0
M  V30 33 H -2.548745 2.557128 -0.793815 0
M  V30 34 H -0.794719 2.426791 1.985923 0
M  V30 35 H 0.185846 1.662506 4.047916 0
M  V30 36 H 1.278828 -1.904656 2.187407 0
M  V30 END ATOM
M  V30 BEGIN BOND
M  V30 1 1 1 2
M  V30 2 2 2 3
M  V30 3 1 3 4
M  V30 4 2 4 5
M  V30 5 1 5 6
M  V30 6 2 6 7
M  V30 7 1 7 8
M  V30 8 2 8 9
M  V30 9 1 9 10
M  V30 10 1 10 11
M  V30 11 2 11 12
M  V30 12 1 11 13
M  V30 13 1 13 14
M  V30 14 1 14 15
M  V30 15 1 15 16
M  V30 16 1 15 17
M  V30 17 1 15 18
M  V30 18 1 13 19
M  V30 19 2 19 20
M  V30 20 1 20 21
M  V30 21 2 21 22
M  V30 22 1 22 23
M  V30 23 1 22 24
M  V30 24 2 24 25
M  V30 25 1 7 2
M  V30 26 1 25 8
M  V30 27 1 25 19
M  V30 28 1 3 26
M  V30 29 1 4 27
M  V30 30 1 5 28
M  V30 31 1 6 29
M  V30 32 1 10 30
M  V30 33 1 10 31
M  V30 34 1 14 32
M  V30 35 1 14 33
M  V30 36 1 20 34
M  V30 37 1 21 35
M  V30 38 1 24 36
M  V30 END BOND
M  V30 END CTAB
M  END
>  <Dataset>  (822) 
OralDrugs

>  <Ligand_Instance>  (822) 
nan

>  <PDB_ID>  (822) 
nan

>  <Standardized_SMILES>  (822) 
Fc1ccccc1C1=NCC(=S)N(CC(F)(F)F)c2ccc(Cl)cc21

>  <Name>  (822) 
Quazepam

>  <Pocket>  (822) 
nan

>  <ATP_Site>  (822) 
nan

>  <Peripheral>  (822) 
nan

>  <Num_H_Atoms_ProtBoundConf>  (822) 
nan

>  <Num_Resolved_Atoms>  (822) 
nan

>  <Num_Not_Resolved_Atoms>  (822) 
nan

$$$$
CHEMBL716
     RDKit          3D

  0  0  0  0  0  0  0  0  0  0999 V3000
M  V30 BEGIN CTAB
M  V30 COUNTS 52 55 0 0 0
M  V30 BEGIN ATOM
M  V30 1 O 2.916741 -2.403285 4.929676 0
M  V30 2 C 2.501553 -3.649136 4.546575 0
M  V30 3 C 1.539408 -3.693972 3.395511 0
M  V30 4 O 1.971272 -3.183044 2.210404 0
M  V30 5 C 2.365526 -1.886496 2.149652 0
M  V30 6 C 2.757993 -1.442491 0.762064 0
M  V30 7 N 1.683957 -1.540974 -0.136479 0
M  V30 8 C 1.963016 -0.852896 -1.420069 0
M  V30 9 C 0.613432 -0.931028 -2.155864 0
M  V30 10 N -0.400718 -1.247979 -1.134885 0
M  V30 11 C -1.194167 -0.171352 -0.656187 0
M  V30 12 N -0.339108 0.629110 -0.121829 0
M  V30 13 C -0.417639 1.861436 0.531286 0
M  V30 14 C 0.787455 2.444483 0.893017 0
M  V30 15 C 0.938873 3.635703 1.540092 0
M  V30 16 C -0.201854 4.350633 1.880486 0
M  V30 17 C -1.437896 3.809499 1.540399 0
M  V30 18 C -1.531926 2.582050 0.875231 0
M  V30 19 S -3.257403 2.313401 0.664091 0
M  V30 20 C -3.539932 0.849458 -0.295876 0
M  V30 21 C -4.866684 0.625424 -0.592329 0
M  V30 22 C -5.363615 -0.448147 -1.330383 0
M  V30 23 C -4.384770 -1.325197 -1.772279 0
M  V30 24 C -3.023094 -1.158374 -1.507193 0
M  V30 25 C -2.621996 -0.052910 -0.760530 0
M  V30 26 C -0.269522 -2.688418 -0.857484 0
M  V30 27 C 1.222322 -2.863505 -0.507773 0
M  V30 28 H 2.123667 -1.867253 5.145977 0
M  V30 29 H 1.971710 -4.129876 5.423539 0
M  V30 30 H 3.359458 -4.338311 4.351910 0
M  V30 31 H 1.264481 -4.792390 3.296276 0
M  V30 32 H 0.560266 -3.224371 3.695130 0
M  V30 33 H 3.201141 -1.638227 2.860605 0
M  V30 34 H 1.462052 -1.252804 2.403513 0
M  V30 35 H 3.248788 -0.442758 0.783379 0
M  V30 36 H 3.618780 -2.133640 0.480136 0
M  V30 37 H 2.191327 0.193967 -1.147962 0
M  V30 38 H 2.760180 -1.347338 -1.993554 0
M  V30 39 H 0.441918 0.098497 -2.563163 0
M  V30 40 H 0.689084 -1.666342 -2.947615 0
M  V30 41 H 1.666858 1.870882 0.620377 0
M  V30 42 H 1.945347 3.958552 1.754341 0
M  V30 43 H -0.026295 5.274177 2.387830 0
M  V30 44 H -2.278366 4.416269 1.834146 0
M  V30 45 H -5.583995 1.341617 -0.221589 0
M  V30 46 H -6.406581 -0.570749 -1.526604 0
M  V30 47 H -4.746678 -2.169144 -2.348825 0
M  V30 48 H -2.348010 -1.902567 -1.900825 0
M  V30 49 H -0.899490 -3.008807 -0.014145 0
M  V30 50 H -0.436676 -3.309658 -1.756870 0
M  V30 51 H 1.424084 -3.662070 0.174458 0
M  V30 52 H 1.750066 -3.156191 -1.476100 0
M  V30 END ATOM
M  V30 BEGIN BOND
M  V30 1 1 1 2
M  V30 2 1 2 3
M  V30 3 1 3 4
M  V30 4 1 4 5
M  V30 5 1 5 6
M  V30 6 1 6 7
M  V30 7 1 7 8
M  V30 8 1 8 9
M  V30 9 1 9 10
M  V30 10 1 10 11
M  V30 11 2 11 12
M  V30 12 1 12 13
M  V30 13 2 13 14
M  V30 14 1 14 15
M  V30 15 2 15 16
M  V30 16 1 16 17
M  V30 17 2 17 18
M  V30 18 1 18 19
M  V30 19 1 19 20
M  V30 20 2 20 21
M  V30 21 1 21 22
M  V30 22 2 22 23
M  V30 23 1 23 24
M  V30 24 2 24 25
M  V30 25 1 10 26
M  V30 26 1 26 27
M  V30 27 1 27 7
M  V30 28 1 25 11
M  V30 29 1 18 13
M  V30 30 1 25 20
M  V30 31 1 1 28
M  V30 32 1 2 29
M  V30 33 1 2 30
M  V30 34 1 3 31
M  V30 35 1 3 32
M  V30 36 1 5 33
M  V30 37 1 5 34
M  V30 38 1 6 35
M  V30 39 1 6 36
M  V30 40 1 8 37
M  V30 41 1 8 38
M  V30 42 1 9 39
M  V30 43 1 9 40
M  V30 44 1 14 41
M  V30 45 1 15 42
M  V30 46 1 16 43
M  V30 47 1 17 44
M  V30 48 1 21 45
M  V30 49 1 22 46
M  V30 50 1 23 47
M  V30 51 1 24 48
M  V30 52 1 26 49
M  V30 53 1 26 50
M  V30 54 1 27 51
M  V30 55 1 27 52
M  V30 END BOND
M  V30 END CTAB
M  END
>  <Dataset>  (823) 
OralDrugs

>  <Ligand_Instance>  (823) 
nan

>  <PDB_ID>  (823) 
nan

>  <Standardized_SMILES>  (823) 
OCCOCCN1CCN(C2=Nc3ccccc3Sc3ccccc32)CC1

>  <Name>  (823) 
Quetiapine

>  <Pocket>  (823) 
nan

>  <ATP_Site>  (823) 
nan

>  <Peripheral>  (823) 
nan

>  <Num_H_Atoms_ProtBoundConf>  (823) 
nan

>  <Num_Resolved_Atoms>  (823) 
nan

>  <Num_Not_Resolved_Atoms>  (823) 
nan

$$$$
CHEMBL1201165
     RDKit          3D

  0  0  0  0  0  0  0  0  0  0999 V3000
M  V30 BEGIN CTAB
M  V30 COUNTS 59 63 0 0 0
M  V30 BEGIN ATOM
M  V30 1 C 6.174986 -3.010734 0.994925 0
M  V30 2 C 5.396546 -2.248515 1.551271 0
M  V30 3 C 4.487303 -1.322866 2.217270 0 CFG=2
M  V30 4 O 5.011727 -0.034173 2.130069 0
M  V30 5 C 4.351509 -1.644935 3.696842 0
M  V30 6 C 2.891889 -1.297069 3.934134 0
M  V30 7 C 2.278506 -1.908177 2.725697 0 CFG=1
M  V30 8 C 0.895224 -1.518327 2.366792 0 CFG=2
M  V30 9 C -0.144350 -1.646853 3.426384 0
M  V30 10 C -1.486394 -1.336888 2.802328 0
M  V30 11 C -1.429742 -1.193945 1.322805 0
M  V30 12 C -2.466320 -0.428819 0.756965 0
M  V30 13 C -2.565130 -0.195880 -0.620995 0
M  V30 14 O -3.632491 0.571848 -1.037140 0
M  V30 15 C -3.936868 0.932869 -2.333133 0
M  V30 16 C -4.044776 2.424024 -2.547325 0
M  V30 17 C -4.827480 2.537506 -3.839390 0
M  V30 18 C -5.393882 1.179682 -4.143048 0
M  V30 19 C -5.305692 0.472585 -2.789005 0
M  V30 20 C -1.594517 -0.751316 -1.423474 0
M  V30 21 C -0.569095 -1.504046 -0.898178 0
M  V30 22 C -0.472808 -1.730780 0.442167 0
M  V30 23 C 0.520696 -2.492638 1.235969 0 CFG=1
M  V30 24 C 1.679465 -2.999014 0.491656 0
M  V30 25 C 2.927711 -2.208528 0.445310 0
M  V30 26 C 3.127881 -1.332294 1.611468 0 CFG=2
M  V30 27 C 2.703687 0.071969 1.232627 0
M  V30 28 H 6.856842 -3.685088 0.511582 0
M  V30 29 H 5.287826 0.331363 2.987121 0
M  V30 30 H 5.046387 -1.053652 4.315553 0
M  V30 31 H 4.448504 -2.749049 3.876708 0
M  V30 32 H 2.564727 -1.824723 4.856516 0
M  V30 33 H 2.758724 -0.199874 3.985837 0
M  V30 34 H 2.374870 -2.990696 2.758528 0
M  V30 35 H 0.831269 -0.465861 2.001996 0
M  V30 36 H 0.052557 -0.880637 4.211287 0
M  V30 37 H -0.170560 -2.665544 3.879739 0
M  V30 38 H -1.871391 -0.355921 3.199591 0
M  V30 39 H -2.253902 -2.093071 3.092497 0
M  V30 40 H -3.238315 0.011012 1.411400 0
M  V30 41 H -3.202262 0.524161 -3.036201 0
M  V30 42 H -3.013684 2.817005 -2.665726 0
M  V30 43 H -4.541288 2.931331 -1.689734 0
M  V30 44 H -4.166605 2.873906 -4.661250 0
M  V30 45 H -5.682217 3.245111 -3.710931 0
M  V30 46 H -6.431787 1.208871 -4.519899 0
M  V30 47 H -4.718963 0.647408 -4.846104 0
M  V30 48 H -6.102672 0.874772 -2.160432 0
M  V30 49 H -5.389518 -0.614941 -2.926739 0
M  V30 50 H -1.636643 -0.595167 -2.481346 0
M  V30 51 H 0.213464 -1.959269 -1.473451 0
M  V30 52 H -0.053928 -3.315380 1.731846 0
M  V30 53 H 1.956105 -3.991408 0.973909 0
M  V30 54 H 1.367411 -3.315114 -0.534720 0
M  V30 55 H 2.903976 -1.602882 -0.494522 0
M  V30 56 H 3.804350 -2.881518 0.335490 0
M  V30 57 H 3.639374 0.534839 0.797051 0
M  V30 58 H 1.972730 0.123191 0.421268 0
M  V30 59 H 2.485904 0.717202 2.109693 0
M  V30 END ATOM
M  V30 BEGIN BOND
M  V30 1 3 1 2
M  V30 2 1 3 2 CFG=3
M  V30 3 1 3 4
M  V30 4 1 3 5
M  V30 5 1 5 6
M  V30 6 1 6 7
M  V30 7 1 7 8
M  V30 8 1 8 9
M  V30 9 1 9 10
M  V30 10 1 10 11
M  V30 11 2 11 12
M  V30 12 1 12 13
M  V30 13 1 13 14
M  V30 14 1 14 15
M  V30 15 1 15 16
M  V30 16 1 16 17
M  V30 17 1 17 18
M  V30 18 1 18 19
M  V30 19 2 13 20
M  V30 20 1 20 21
M  V30 21 2 21 22
M  V30 22 1 22 23
M  V30 23 1 23 24
M  V30 24 1 24 25
M  V30 25 1 25 26
M  V30 26 1 26 27 CFG=3
M  V30 27 1 26 3
M  V30 28 1 26 7
M  V30 29 1 23 8
M  V30 30 1 22 11
M  V30 31 1 19 15
M  V30 32 1 1 28
M  V30 33 1 4 29
M  V30 34 1 5 30
M  V30 35 1 5 31
M  V30 36 1 6 32
M  V30 37 1 6 33
M  V30 38 1 7 34 CFG=1
M  V30 39 1 8 35 CFG=3
M  V30 40 1 9 36
M  V30 41 1 9 37
M  V30 42 1 10 38
M  V30 43 1 10 39
M  V30 44 1 12 40
M  V30 45 1 15 41
M  V30 46 1 16 42
M  V30 47 1 16 43
M  V30 48 1 17 44
M  V30 49 1 17 45
M  V30 50 1 18 46
M  V30 51 1 18 47
M  V30 52 1 19 48
M  V30 53 1 19 49
M  V30 54 1 20 50
M  V30 55 1 21 51
M  V30 56 1 23 52 CFG=1
M  V30 57 1 24 53
M  V30 58 1 24 54
M  V30 59 1 25 55
M  V30 60 1 25 56
M  V30 61 1 27 57
M  V30 62 1 27 58
M  V30 63 1 27 59
M  V30 END BOND
M  V30 END CTAB
M  END
>  <Dataset>  (824) 
OralDrugs

>  <Ligand_Instance>  (824) 
nan

>  <PDB_ID>  (824) 
nan

>  <Standardized_SMILES>  (824) 
C#C[C@]1(O)CC[C@H]2[C@@H]3CCc4cc(OC5CCCC5)ccc4[C@H]3CC[C@@]21C

>  <Name>  (824) 
Quinestrol

>  <Pocket>  (824) 
nan

>  <ATP_Site>  (824) 
nan

>  <Peripheral>  (824) 
nan

>  <Num_H_Atoms_ProtBoundConf>  (824) 
nan

>  <Num_Resolved_Atoms>  (824) 
nan

>  <Num_Not_Resolved_Atoms>  (824) 
nan

$$$$
CHEMBL1532
     RDKit          3D

  0  0  0  0  0  0  0  0  0  0999 V3000
M  V30 BEGIN CTAB
M  V30 COUNTS 30 31 0 0 0
M  V30 BEGIN ATOM
M  V30 1 C -2.836224 -2.541825 2.680914 0
M  V30 2 C -1.583989 -1.733206 2.784713 0
M  V30 3 C -0.338011 -2.586527 2.571159 0
M  V30 4 N -0.460797 -3.152155 1.226749 0
M  V30 5 C -0.372237 -2.298075 0.087827 0
M  V30 6 O -0.916813 -2.575091 -1.001015 0
M  V30 7 C 0.395081 -1.066986 0.254397 0
M  V30 8 C 0.552495 -0.161026 -0.774440 0
M  V30 9 C 1.269063 1.024731 -0.677673 0
M  V30 10 S 1.422504 2.120364 -2.034480 0
M  V30 11 N 3.103895 2.260045 -2.398069 0
M  V30 12 O 0.763525 1.476524 -3.215906 0
M  V30 13 O 0.806464 3.452498 -1.738555 0
M  V30 14 C 1.833747 1.244321 0.561783 0
M  V30 15 Cl 2.759853 2.708753 0.807001 0
M  V30 16 C 1.705785 0.371007 1.620624 0
M  V30 17 C 0.982868 -0.792796 1.469999 0
M  V30 18 N 0.824218 -1.720842 2.531093 0
M  V30 19 H -2.635482 -3.639498 2.588046 0
M  V30 20 H -3.505737 -2.197587 1.844840 0
M  V30 21 H -3.434699 -2.424600 3.611996 0
M  V30 22 H -1.603646 -0.947551 2.003365 0
M  V30 23 H -1.489347 -1.295038 3.808085 0
M  V30 24 H -0.247187 -3.378755 3.313108 0
M  V30 25 H -0.615453 -4.188800 1.066015 0
M  V30 26 H 0.086256 -0.372107 -1.749123 0
M  V30 27 H 3.367209 1.443684 -2.996234 0
M  V30 28 H 3.629576 2.119612 -1.508756 0
M  V30 29 H 2.164791 0.580565 2.577366 0
M  V30 30 H 1.575166 -1.746779 3.268075 0
M  V30 END ATOM
M  V30 BEGIN BOND
M  V30 1 1 1 2
M  V30 2 1 2 3
M  V30 3 1 3 4
M  V30 4 1 4 5
M  V30 5 2 5 6
M  V30 6 1 5 7
M  V30 7 2 7 8
M  V30 8 1 8 9
M  V30 9 1 9 10
M  V30 10 1 10 11
M  V30 11 2 10 12
M  V30 12 2 10 13
M  V30 13 2 9 14
M  V30 14 1 14 15
M  V30 15 1 14 16
M  V30 16 2 16 17
M  V30 17 1 17 18
M  V30 18 1 18 3
M  V30 19 1 17 7
M  V30 20 1 1 19
M  V30 21 1 1 20
M  V30 22 1 1 21
M  V30 23 1 2 22
M  V30 24 1 2 23
M  V30 25 1 3 24
M  V30 26 1 4 25
M  V30 27 1 8 26
M  V30 28 1 11 27
M  V30 29 1 11 28
M  V30 30 1 16 29
M  V30 31 1 18 30
M  V30 END BOND
M  V30 END CTAB
M  END
>  <Dataset>  (825) 
OralDrugs

>  <Ligand_Instance>  (825) 
nan

>  <PDB_ID>  (825) 
nan

>  <Standardized_SMILES>  (825) 
CCC1NC(=O)c2cc(S(N)(=O)=O)c(Cl)cc2N1

>  <Name>  (825) 
Quinethazone

>  <Pocket>  (825) 
nan

>  <ATP_Site>  (825) 
nan

>  <Peripheral>  (825) 
nan

>  <Num_H_Atoms_ProtBoundConf>  (825) 
nan

>  <Num_Resolved_Atoms>  (825) 
nan

>  <Num_Not_Resolved_Atoms>  (825) 
nan

$$$$
CHEMBL1294
     RDKit          3D

  0  0  0  0  0  0  0  0  0  0999 V3000
M  V30 BEGIN CTAB
M  V30 COUNTS 48 51 0 0 0
M  V30 BEGIN ATOM
M  V30 1 C -1.052651 -4.580659 0.458134 0
M  V30 2 C 0.145379 -4.309721 0.995015 0
M  V30 3 C 1.434679 -3.643110 0.675940 0 CFG=1
M  V30 4 C 1.388656 -2.961740 -0.696722 0
M  V30 5 N 2.180845 -1.751241 -0.734541 0
M  V30 6 C 3.423090 -2.108454 -0.026078 0
M  V30 7 C 3.182776 -2.171508 1.484833 0
M  V30 8 C 1.715104 -2.497722 1.655788 0 CFG=1
M  V30 9 C 0.857250 -1.306477 1.177099 0
M  V30 10 C 1.595367 -0.683972 0.050099 0 CFG=2
M  V30 11 C 0.787532 0.282642 -0.804934 0 CFG=1
M  V30 12 O -0.216437 -0.457661 -1.385395 0
M  V30 13 C 0.393364 1.504050 -0.127435 0
M  V30 14 C 1.324971 2.559846 -0.186152 0
M  V30 15 C 1.165891 3.805797 0.385621 0
M  V30 16 N 0.025540 4.073981 1.072145 0
M  V30 17 C -0.914473 3.120009 1.175256 0
M  V30 18 C -2.100567 3.302754 1.851566 0
M  V30 19 C -3.085459 2.324557 1.968143 0
M  V30 20 C -2.848480 1.085043 1.359236 0
M  V30 21 O -3.834330 0.111769 1.478237 0
M  V30 22 C -5.002924 0.416896 2.193831 0
M  V30 23 C -1.671224 0.912846 0.691580 0
M  V30 24 C -0.711604 1.893847 0.588975 0
M  V30 25 H -1.909085 -5.112067 0.881954 0
M  V30 26 H -1.706420 -4.500052 -0.381163 0
M  V30 27 H 0.192689 -4.711873 2.003502 0
M  V30 28 H 2.245626 -4.379412 0.720546 0
M  V30 29 H 0.337014 -2.841877 -0.949392 0
M  V30 30 H 1.846476 -3.644692 -1.440417 0
M  V30 31 H 4.215235 -1.361471 -0.188062 0
M  V30 32 H 3.677433 -3.136610 -0.344787 0
M  V30 33 H 3.730663 -3.013650 1.950551 0
M  V30 34 H 3.486070 -1.245625 1.991665 0
M  V30 35 H 1.420044 -2.740368 2.680337 0
M  V30 36 H 0.740992 -0.678538 2.084385 0
M  V30 37 H -0.099133 -1.797841 0.858454 0
M  V30 38 H 2.426154 -0.071808 0.468002 0
M  V30 39 H 1.448847 0.578255 -1.704321 0
M  V30 40 H -0.007868 -0.833943 -2.256624 0
M  V30 41 H 2.279882 2.430892 -0.723379 0
M  V30 42 H 1.928144 4.565264 0.296447 0
M  V30 43 H -2.282913 4.268505 2.324835 0
M  V30 44 H -3.980284 2.582133 2.525515 0
M  V30 45 H -4.695622 0.671190 3.235996 0
M  V30 46 H -5.737399 -0.406863 2.152925 0
M  V30 47 H -5.414876 1.356874 1.747589 0
M  V30 48 H -1.579940 -0.065409 0.259927 0
M  V30 END ATOM
M  V30 BEGIN BOND
M  V30 1 2 1 2
M  V30 2 1 2 3
M  V30 3 1 3 4
M  V30 4 1 4 5
M  V30 5 1 5 6
M  V30 6 1 6 7
M  V30 7 1 7 8
M  V30 8 1 8 9
M  V30 9 1 9 10
M  V30 10 1 10 11
M  V30 11 1 11 12
M  V30 12 1 11 13
M  V30 13 2 13 14
M  V30 14 1 14 15
M  V30 15 2 15 16
M  V30 16 1 16 17
M  V30 17 2 17 18
M  V30 18 1 18 19
M  V30 19 2 19 20
M  V30 20 1 20 21
M  V30 21 1 21 22
M  V30 22 1 20 23
M  V30 23 2 23 24
M  V30 24 1 8 3
M  V30 25 1 24 13
M  V30 26 1 10 5
M  V30 27 1 24 17
M  V30 28 1 1 25
M  V30 29 1 1 26
M  V30 30 1 2 27
M  V30 31 1 3 28 CFG=3
M  V30 32 1 4 29
M  V30 33 1 4 30
M  V30 34 1 6 31
M  V30 35 1 6 32
M  V30 36 1 7 33
M  V30 37 1 7 34
M  V30 38 1 8 35 CFG=1
M  V30 39 1 9 36
M  V30 40 1 9 37
M  V30 41 1 10 38 CFG=1
M  V30 42 1 11 39 CFG=3
M  V30 43 1 12 40
M  V30 44 1 14 41
M  V30 45 1 15 42
M  V30 46 1 18 43
M  V30 47 1 19 44
M  V30 48 1 22 45
M  V30 49 1 22 46
M  V30 50 1 22 47
M  V30 51 1 23 48
M  V30 END BOND
M  V30 END CTAB
M  END
>  <Dataset>  (826) 
OralDrugs

>  <Ligand_Instance>  (826) 
nan

>  <PDB_ID>  (826) 
nan

>  <Standardized_SMILES>  (826) 
C=C[C@H]1CN2CC[C@H]1C[C@@H]2[C@@H](O)c1ccnc2ccc(OC)cc12

>  <Name>  (826) 
Quinidine

>  <Pocket>  (826) 
nan

>  <ATP_Site>  (826) 
nan

>  <Peripheral>  (826) 
nan

>  <Num_H_Atoms_ProtBoundConf>  (826) 
nan

>  <Num_Resolved_Atoms>  (826) 
nan

>  <Num_Not_Resolved_Atoms>  (826) 
nan

$$$$
CHEMBL170
     RDKit          3D

  0  0  0  0  0  0  0  0  0  0999 V3000
M  V30 BEGIN CTAB
M  V30 COUNTS 48 51 0 0 0
M  V30 BEGIN ATOM
M  V30 1 C 2.722122 -4.005710 -0.829601 0
M  V30 2 C 3.016459 -3.052759 -1.685462 0
M  V30 3 C 2.939702 -1.584034 -1.857233 0 CFG=1
M  V30 4 C 2.303204 -1.168094 -3.168994 0
M  V30 5 N 1.031738 -0.538627 -2.844057 0
M  V30 6 C 1.378983 0.726765 -2.241016 0
M  V30 7 C 2.303433 0.599433 -1.062092 0
M  V30 8 C 2.318435 -0.872892 -0.676981 0 CFG=1
M  V30 9 C 0.831409 -1.246228 -0.539930 0
M  V30 10 C 0.336033 -1.425193 -1.941337 0 CFG=1
M  V30 11 C -1.146554 -1.464196 -2.127410 0 CFG=2
M  V30 12 O -1.311203 -1.908732 -3.468526 0
M  V30 13 C -1.867297 -0.213667 -2.049707 0
M  V30 14 C -1.980614 0.627737 -3.172676 0
M  V30 15 C -2.646654 1.839278 -3.176410 0
M  V30 16 N -3.245041 2.280026 -2.035686 0
M  V30 17 C -3.178118 1.520484 -0.909229 0
M  V30 18 C -3.786975 1.961924 0.251781 0
M  V30 19 C -3.725913 1.192363 1.401912 0
M  V30 20 C -3.053599 -0.032483 1.407578 0
M  V30 21 O -2.999981 -0.794035 2.566877 0
M  V30 22 C -3.651385 -0.265005 3.709499 0
M  V30 23 C -2.467066 -0.416845 0.218179 0
M  V30 24 C -2.503972 0.317101 -0.945912 0
M  V30 25 H 2.806492 -5.087492 -0.763315 0
M  V30 26 H 2.274791 -4.038217 0.145567 0
M  V30 27 H 3.466244 -3.538897 -2.546618 0
M  V30 28 H 3.989138 -1.222279 -1.897032 0
M  V30 29 H 2.925740 -0.495668 -3.763026 0
M  V30 30 H 2.049297 -2.109450 -3.727780 0
M  V30 31 H 0.550605 1.372117 -1.971542 0
M  V30 32 H 1.952106 1.277703 -3.037434 0
M  V30 33 H 3.333170 0.980032 -1.279386 0
M  V30 34 H 1.894668 1.142215 -0.176554 0
M  V30 35 H 2.895533 -1.084121 0.218673 0
M  V30 36 H 0.724851 -2.174012 0.072663 0
M  V30 37 H 0.405363 -0.425635 0.028767 0
M  V30 38 H 0.679990 -2.465705 -2.206803 0
M  V30 39 H -1.519214 -2.309745 -1.544541 0
M  V30 40 H -1.990446 -2.590759 -3.572930 0
M  V30 41 H -1.508928 0.297048 -4.101626 0
M  V30 42 H -2.667840 2.405948 -4.109354 0
M  V30 43 H -4.310296 2.910534 0.255780 0
M  V30 44 H -4.219299 1.583910 2.283718 0
M  V30 45 H -4.707558 -0.029303 3.445514 0
M  V30 46 H -3.108676 0.674480 3.971635 0
M  V30 47 H -3.610447 -0.964853 4.570554 0
M  V30 48 H -1.957383 -1.356399 0.240462 0
M  V30 END ATOM
M  V30 BEGIN BOND
M  V30 1 2 1 2
M  V30 2 1 2 3
M  V30 3 1 3 4
M  V30 4 1 4 5
M  V30 5 1 5 6
M  V30 6 1 6 7
M  V30 7 1 7 8
M  V30 8 1 8 9
M  V30 9 1 9 10
M  V30 10 1 10 11
M  V30 11 1 11 12
M  V30 12 1 11 13
M  V30 13 2 13 14
M  V30 14 1 14 15
M  V30 15 2 15 16
M  V30 16 1 16 17
M  V30 17 2 17 18
M  V30 18 1 18 19
M  V30 19 2 19 20
M  V30 20 1 20 21
M  V30 21 1 21 22
M  V30 22 1 20 23
M  V30 23 2 23 24
M  V30 24 1 8 3
M  V30 25 1 24 13
M  V30 26 1 10 5
M  V30 27 1 24 17
M  V30 28 1 1 25
M  V30 29 1 1 26
M  V30 30 1 2 27
M  V30 31 1 3 28 CFG=3
M  V30 32 1 4 29
M  V30 33 1 4 30
M  V30 34 1 6 31
M  V30 35 1 6 32
M  V30 36 1 7 33
M  V30 37 1 7 34
M  V30 38 1 8 35 CFG=1
M  V30 39 1 9 36
M  V30 40 1 9 37
M  V30 41 1 10 38 CFG=3
M  V30 42 1 11 39 CFG=1
M  V30 43 1 12 40
M  V30 44 1 14 41
M  V30 45 1 15 42
M  V30 46 1 18 43
M  V30 47 1 19 44
M  V30 48 1 22 45
M  V30 49 1 22 46
M  V30 50 1 22 47
M  V30 51 1 23 48
M  V30 END BOND
M  V30 END CTAB
M  END
>  <Dataset>  (827) 
OralDrugs

>  <Ligand_Instance>  (827) 
nan

>  <PDB_ID>  (827) 
nan

>  <Standardized_SMILES>  (827) 
C=C[C@H]1CN2CC[C@H]1C[C@H]2[C@H](O)c1ccnc2ccc(OC)cc12

>  <Name>  (827) 
Quinine

>  <Pocket>  (827) 
nan

>  <ATP_Site>  (827) 
nan

>  <Peripheral>  (827) 
nan

>  <Num_H_Atoms_ProtBoundConf>  (827) 
nan

>  <Num_Resolved_Atoms>  (827) 
nan

>  <Num_Not_Resolved_Atoms>  (827) 
nan

$$$$
CHEMBL576982
     RDKit          3D

  0  0  0  0  0  0  0  0  0  0999 V3000
M  V30 BEGIN CTAB
M  V30 COUNTS 72 77 0 0 0
M  V30 BEGIN ATOM
M  V30 1 C 8.341777 -1.618489 6.244001 0
M  V30 2 C 7.045880 -1.744609 5.474092 0
M  V30 3 C 5.926280 -1.953099 6.462701 0
M  V30 4 C 7.140752 -2.944411 4.548767 0
M  V30 5 C 6.865538 -0.533909 4.654653 0
M  V30 6 C 6.195699 0.556855 5.136701 0
M  V30 7 C 6.205334 1.495685 4.142070 0
M  V30 8 N 5.732743 2.830033 3.837793 0
M  V30 9 C 4.445227 3.019649 3.207490 0
M  V30 10 O 3.820028 1.917180 2.982323 0
M  V30 11 N 3.722566 4.172552 2.783386 0
M  V30 12 C 2.491051 3.647277 2.227402 0
M  V30 13 C 2.705041 3.304919 0.910129 0
M  V30 14 C 1.684276 2.746671 0.169251 0
M  V30 15 C 0.471963 2.569227 0.835182 0
M  V30 16 C -0.614502 1.929061 0.111271 0
M  V30 17 C -0.620913 1.448142 -1.169106 0
M  V30 18 N -1.813473 0.907307 -1.526523 0
M  V30 19 C -2.503028 1.089396 -0.410446 0
M  V30 20 N -1.839709 1.689711 0.588862 0
M  V30 21 S -4.168638 0.371000 -0.766454 0
M  V30 22 C -3.678543 -0.101095 -2.456052 0
M  V30 23 C -4.457059 -0.734715 -3.406725 0
M  V30 24 C -3.895453 -0.994790 -4.625845 0
M  V30 25 O -4.503487 -1.618929 -5.690814 0
M  V30 26 C -5.835541 -2.147684 -5.600228 0
M  V30 27 C -5.820960 -3.291985 -4.630797 0
M  V30 28 N -7.045278 -3.949097 -4.365854 0
M  V30 29 C -6.708606 -5.034376 -3.436927 0
M  V30 30 C -7.714634 -5.185439 -2.350394 0
M  V30 31 O -8.974739 -5.221588 -2.989752 0
M  V30 32 C -9.267136 -3.930431 -3.363000 0
M  V30 33 C -8.102707 -3.124542 -3.863862 0
M  V30 34 C -2.589817 -0.590001 -4.781563 0
M  V30 35 C -1.839199 0.032674 -3.830978 0
M  V30 36 C -2.364127 0.312260 -2.585940 0
M  V30 37 C 0.263780 2.919153 2.161185 0
M  V30 38 C 1.295678 3.473357 2.887016 0
M  V30 39 N 6.874427 0.941377 3.103337 0
M  V30 40 O 7.269555 -0.274839 3.407875 0
M  V30 41 H 9.150270 -1.901697 5.540859 0
M  V30 42 H 8.353424 -2.245481 7.158244 0
M  V30 43 H 8.459143 -0.550525 6.492757 0
M  V30 44 H 4.978807 -1.485367 6.147883 0
M  V30 45 H 6.228812 -1.680945 7.496873 0
M  V30 46 H 5.724699 -3.057849 6.505140 0
M  V30 47 H 6.136752 -3.353339 4.277175 0
M  V30 48 H 7.627489 -2.684830 3.596633 0
M  V30 49 H 7.706522 -3.775828 5.013415 0
M  V30 50 H 5.694595 0.863781 6.042490 0
M  V30 51 H 6.153831 3.782665 3.980137 0
M  V30 52 H 4.274186 5.025268 2.995624 0
M  V30 53 H 3.642501 3.427848 0.348515 0
M  V30 54 H 1.824471 2.469355 -0.866733 0
M  V30 55 H 0.295936 1.534094 -1.775119 0
M  V30 56 H -5.461788 -0.962967 -3.148328 0
M  V30 57 H -6.505198 -1.324053 -5.350195 0
M  V30 58 H -6.098151 -2.513359 -6.616291 0
M  V30 59 H -5.193986 -3.103953 -3.749256 0
M  V30 60 H -5.189818 -4.095328 -5.187557 0
M  V30 61 H -5.724380 -4.856409 -2.947711 0
M  V30 62 H -6.592991 -5.998284 -3.977111 0
M  V30 63 H -7.620246 -6.133710 -1.821540 0
M  V30 64 H -7.746464 -4.311862 -1.675595 0
M  V30 65 H -10.093777 -4.014052 -4.125035 0
M  V30 66 H -9.775836 -3.437655 -2.479704 0
M  V30 67 H -8.509590 -2.510098 -4.702680 0
M  V30 68 H -7.686151 -2.490326 -3.046295 0
M  V30 69 H -2.098595 -0.778376 -5.755071 0
M  V30 70 H -0.810791 0.292183 -4.101036 0
M  V30 71 H -0.678065 2.780245 2.663552 0
M  V30 72 H 1.276611 3.793264 3.912369 0
M  V30 END ATOM
M  V30 BEGIN BOND
M  V30 1 1 1 2
M  V30 2 1 2 3
M  V30 3 1 2 4
M  V30 4 1 2 5
M  V30 5 2 5 6
M  V30 6 1 6 7
M  V30 7 1 7 8
M  V30 8 1 8 9
M  V30 9 2 9 10
M  V30 10 1 9 11
M  V30 11 1 11 12
M  V30 12 2 12 13
M  V30 13 1 13 14
M  V30 14 2 14 15
M  V30 15 1 15 16
M  V30 16 2 16 17
M  V30 17 1 17 18
M  V30 18 1 18 19
M  V30 19 2 19 20
M  V30 20 1 19 21
M  V30 21 1 21 22
M  V30 22 2 22 23
M  V30 23 1 23 24
M  V30 24 1 24 25
M  V30 25 1 25 26
M  V30 26 1 26 27
M  V30 27 1 27 28
M  V30 28 1 28 29
M  V30 29 1 29 30
M  V30 30 1 30 31
M  V30 31 1 31 32
M  V30 32 1 32 33
M  V30 33 2 24 34
M  V30 34 1 34 35
M  V30 35 2 35 36
M  V30 36 1 15 37
M  V30 37 2 37 38
M  V30 38 2 7 39
M  V30 39 1 39 40
M  V30 40 1 40 5
M  V30 41 1 38 12
M  V30 42 1 20 16
M  V30 43 1 36 22
M  V30 44 1 36 18
M  V30 45 1 33 28
M  V30 46 1 1 41
M  V30 47 1 1 42
M  V30 48 1 1 43
M  V30 49 1 3 44
M  V30 50 1 3 45
M  V30 51 1 3 46
M  V30 52 1 4 47
M  V30 53 1 4 48
M  V30 54 1 4 49
M  V30 55 1 6 50
M  V30 56 1 8 51
M  V30 57 1 11 52
M  V30 58 1 13 53
M  V30 59 1 14 54
M  V30 60 1 17 55
M  V30 61 1 23 56
M  V30 62 1 26 57
M  V30 63 1 26 58
M  V30 64 1 27 59
M  V30 65 1 27 60
M  V30 66 1 29 61
M  V30 67 1 29 62
M  V30 68 1 30 63
M  V30 69 1 30 64
M  V30 70 1 32 65
M  V30 71 1 32 66
M  V30 72 1 33 67
M  V30 73 1 33 68
M  V30 74 1 34 69
M  V30 75 1 35 70
M  V30 76 1 37 71
M  V30 77 1 38 72
M  V30 END BOND
M  V30 END CTAB
M  END
>  <Dataset>  (828) 
OralDrugs

>  <Ligand_Instance>  (828) 
nan

>  <PDB_ID>  (828) 
nan

>  <Standardized_SMILES>  (828) 
CC(C)(C)c1cc(NC(=O)Nc2ccc(-c3cn4c(n3)sc3cc(OCCN5CCOCC5)ccc34)cc2)no1

>  <Name>  (828) 
Quizartinib

>  <Pocket>  (828) 
nan

>  <ATP_Site>  (828) 
nan

>  <Peripheral>  (828) 
nan

>  <Num_H_Atoms_ProtBoundConf>  (828) 
nan

>  <Num_Resolved_Atoms>  (828) 
nan

>  <Num_Not_Resolved_Atoms>  (828) 
nan

$$$$
CHEMBL1219
     RDKit          3D

  0  0  0  0  0  0  0  0  0  0999 V3000
M  V30 BEGIN CTAB
M  V30 COUNTS 46 48 0 0 0
M  V30 BEGIN ATOM
M  V30 1 C 1.124434 -4.471533 0.871174 0
M  V30 2 O 1.008490 -4.016624 -0.437849 0
M  V30 3 C -0.283400 -3.761193 -0.816713 0
M  V30 4 C -0.277695 -3.275300 -2.249275 0
M  V30 5 C 0.552518 -2.009108 -2.337596 0
M  V30 6 O 0.028361 -1.004865 -1.516371 0
M  V30 7 C 0.658345 0.228042 -1.472531 0
M  V30 8 C 1.802071 0.530540 -2.213023 0
M  V30 9 C 2.365094 1.780197 -2.111083 0
M  V30 10 N 1.829680 2.718545 -1.306126 0
M  V30 11 C 0.714427 2.480277 -0.559362 0
M  V30 12 C 0.257532 3.587315 0.304911 0
M  V30 13 S 0.808703 3.474881 1.979543 0 CHG=1 VAL=3
M  V30 14 O 2.490068 3.487703 2.068900 0 CHG=-1 VAL=1
M  V30 15 C 0.266983 2.026877 2.784915 0
M  V30 16 N 0.978366 0.862960 2.844199 0
M  V30 17 C 0.312513 -0.074040 3.528493 0
M  V30 18 C 0.697164 -1.385770 3.808699 0
M  V30 19 C -0.161605 -2.156115 4.530391 0
M  V30 20 C -1.373843 -1.605660 4.952688 0
M  V30 21 C -1.728323 -0.298011 4.658394 0
M  V30 22 C -0.874274 0.500409 3.928789 0
M  V30 23 N -0.865428 1.765737 3.462289 0
M  V30 24 C 0.144651 1.236079 -0.655161 0
M  V30 25 C -1.089706 0.911896 0.101598 0
M  V30 26 H 0.594166 -5.398524 1.086425 0
M  V30 27 H 2.222447 -4.567550 1.065739 0
M  V30 28 H 0.793428 -3.696418 1.601254 0
M  V30 29 H -0.775301 -2.951952 -0.226817 0
M  V30 30 H -0.954615 -4.647540 -0.767609 0
M  V30 31 H -1.292228 -3.090386 -2.655633 0
M  V30 32 H 0.257487 -4.049456 -2.842170 0
M  V30 33 H 0.644335 -1.696436 -3.380350 0
M  V30 34 H 1.564575 -2.272862 -1.941471 0
M  V30 35 H 2.201717 -0.262007 -2.852597 0
M  V30 36 H 3.249669 1.981307 -2.697839 0
M  V30 37 H 0.642218 4.579440 -0.080253 0
M  V30 38 H -0.867627 3.681444 0.261096 0
M  V30 39 H 1.646668 -1.777707 3.463367 0
M  V30 40 H 0.126613 -3.179641 4.754649 0
M  V30 41 H -2.037555 -2.240143 5.524760 0
M  V30 42 H -2.666157 0.128645 4.984298 0
M  V30 43 H -1.630623 2.452956 3.604418 0
M  V30 44 H -1.535116 1.805727 0.566937 0
M  V30 45 H -1.794761 0.447925 -0.637648 0
M  V30 46 H -0.886170 0.173470 0.907451 0
M  V30 END ATOM
M  V30 BEGIN BOND
M  V30 1 1 1 2
M  V30 2 1 2 3
M  V30 3 1 3 4
M  V30 4 1 4 5
M  V30 5 1 5 6
M  V30 6 1 6 7
M  V30 7 2 7 8
M  V30 8 1 8 9
M  V30 9 2 9 10
M  V30 10 1 10 11
M  V30 11 1 11 12
M  V30 12 1 12 13
M  V30 13 1 13 14
M  V30 14 1 13 15
M  V30 15 2 15 16
M  V30 16 1 16 17
M  V30 17 2 17 18
M  V30 18 1 18 19
M  V30 19 2 19 20
M  V30 20 1 20 21
M  V30 21 2 21 22
M  V30 22 1 22 23
M  V30 23 2 11 24
M  V30 24 1 24 25
M  V30 25 1 24 7
M  V30 26 1 23 15
M  V30 27 1 22 17
M  V30 28 1 1 26
M  V30 29 1 1 27
M  V30 30 1 1 28
M  V30 31 1 3 29
M  V30 32 1 3 30
M  V30 33 1 4 31
M  V30 34 1 4 32
M  V30 35 1 5 33
M  V30 36 1 5 34
M  V30 37 1 8 35
M  V30 38 1 9 36
M  V30 39 1 12 37
M  V30 40 1 12 38
M  V30 41 1 18 39
M  V30 42 1 19 40
M  V30 43 1 20 41
M  V30 44 1 21 42
M  V30 45 1 23 43
M  V30 46 1 25 44
M  V30 47 1 25 45
M  V30 48 1 25 46
M  V30 END BOND
M  V30 END CTAB
M  END
>  <Dataset>  (829) 
OralDrugs

>  <Ligand_Instance>  (829) 
nan

>  <PDB_ID>  (829) 
nan

>  <Standardized_SMILES>  (829) 
COCCCOc1ccnc(C[S+]([O-])c2nc3ccccc3[nH]2)c1C

>  <Name>  (829) 
Rabeprazole

>  <Pocket>  (829) 
nan

>  <ATP_Site>  (829) 
nan

>  <Peripheral>  (829) 
nan

>  <Num_H_Atoms_ProtBoundConf>  (829) 
nan

>  <Num_Resolved_Atoms>  (829) 
nan

>  <Num_Not_Resolved_Atoms>  (829) 
nan

$$$$
CHEMBL81
     RDKit          3D

  0  0  0  0  0  0  0  0  0  0999 V3000
M  V30 BEGIN CTAB
M  V30 COUNTS 61 65 0 0 0
M  V30 BEGIN ATOM
M  V30 1 O -1.814355 -2.469446 -1.823451 0
M  V30 2 C -0.917165 -2.837339 -1.021514 0
M  V30 3 C -0.690599 -1.823772 0.032543 0
M  V30 4 C -0.201182 -2.268208 1.272688 0
M  V30 5 C 0.030303 -1.318647 2.271228 0
M  V30 6 C -0.207383 0.046930 2.077483 0
M  V30 7 O 0.106669 0.704072 3.209638 0
M  V30 8 C 0.061386 2.062749 3.514868 0
M  V30 9 C 0.958529 2.917317 2.691266 0
M  V30 10 N 0.919543 4.323786 3.040776 0
M  V30 11 C 1.921707 5.046258 2.228523 0
M  V30 12 C 1.442146 6.461428 2.057150 0
M  V30 13 C 0.243828 6.458775 1.120855 0
M  V30 14 C -0.653085 5.295785 1.453653 0
M  V30 15 C -0.366249 4.905006 2.902871 0
M  V30 16 C -0.685818 0.402137 0.839111 0
M  V30 17 C -0.926651 -0.487803 -0.165541 0
M  V30 18 C -0.158229 -4.112330 -1.076708 0
M  V30 19 C -0.736313 -5.286883 -1.337523 0
M  V30 20 C -2.079795 -5.794542 -1.538450 0
M  V30 21 C -3.279350 -5.193832 -1.248094 0
M  V30 22 C -4.557323 -5.634853 -1.485214 0
M  V30 23 C -4.619709 -6.858933 -2.102600 0
M  V30 24 O -5.859313 -7.413739 -2.396944 0
M  V30 25 C -3.509236 -7.586913 -2.455417 0
M  V30 26 C -2.286559 -7.031735 -2.162423 0
M  V30 27 S 0.627879 -6.447424 -1.455205 0
M  V30 28 C 1.920016 -5.235810 -1.132752 0
M  V30 29 C 3.277302 -5.489309 -1.095478 0
M  V30 30 C 4.081169 -4.405225 -0.856030 0
M  V30 31 O 5.442107 -4.629368 -0.812566 0
M  V30 32 C 3.444240 -3.204912 -0.683811 0
M  V30 33 C 2.084186 -3.035882 -0.735623 0
M  V30 34 C 1.208241 -4.077781 -0.969540 0
M  V30 35 H -0.034510 -3.332739 1.369955 0
M  V30 36 H 0.407074 -1.827095 3.167319 0
M  V30 37 H -1.006272 2.378517 3.304841 0
M  V30 38 H 0.267435 2.260606 4.586896 0
M  V30 39 H 0.754676 2.879793 1.603925 0
M  V30 40 H 2.029049 2.534302 2.761362 0
M  V30 41 H 2.098400 4.535333 1.273733 0
M  V30 42 H 2.868722 4.994701 2.823947 0
M  V30 43 H 1.227281 6.898565 3.048821 0
M  V30 44 H 2.254285 7.112513 1.639723 0
M  V30 45 H -0.343657 7.380136 1.206441 0
M  V30 46 H 0.686381 6.317312 0.093957 0
M  V30 47 H -0.334521 4.422001 0.834326 0
M  V30 48 H -1.718519 5.481126 1.326095 0
M  V30 49 H -0.388440 5.832471 3.526104 0
M  V30 50 H -1.192449 4.255851 3.201979 0
M  V30 51 H -0.861149 1.454510 0.741747 0
M  V30 52 H -1.302039 -0.131901 -1.110699 0
M  V30 53 H -3.235434 -4.250423 -0.728680 0
M  V30 54 H -5.423397 -5.067305 -1.208505 0
M  V30 55 H -6.535658 -6.868819 -2.940617 0
M  V30 56 H -3.607823 -8.547244 -2.938919 0
M  V30 57 H -1.439043 -7.664774 -2.472426 0
M  V30 58 H 3.634420 -6.474691 -1.247840 0
M  V30 59 H 6.019966 -3.849436 -0.495454 0
M  V30 60 H 4.126583 -2.358217 -0.495324 0
M  V30 61 H 1.799886 -2.005268 -0.595044 0
M  V30 END ATOM
M  V30 BEGIN BOND
M  V30 1 2 1 2
M  V30 2 1 2 3
M  V30 3 2 3 4
M  V30 4 1 4 5
M  V30 5 2 5 6
M  V30 6 1 6 7
M  V30 7 1 7 8
M  V30 8 1 8 9
M  V30 9 1 9 10
M  V30 10 1 10 11
M  V30 11 1 11 12
M  V30 12 1 12 13
M  V30 13 1 13 14
M  V30 14 1 14 15
M  V30 15 1 6 16
M  V30 16 2 16 17
M  V30 17 1 2 18
M  V30 18 2 18 19
M  V30 19 1 19 20
M  V30 20 2 20 21
M  V30 21 1 21 22
M  V30 22 2 22 23
M  V30 23 1 23 24
M  V30 24 1 23 25
M  V30 25 2 25 26
M  V30 26 1 19 27
M  V30 27 1 27 28
M  V30 28 2 28 29
M  V30 29 1 29 30
M  V30 30 1 30 31
M  V30 31 2 30 32
M  V30 32 1 32 33
M  V30 33 2 33 34
M  V30 34 1 17 3
M  V30 35 1 34 18
M  V30 36 1 15 10
M  V30 37 1 26 20
M  V30 38 1 34 28
M  V30 39 1 4 35
M  V30 40 1 5 36
M  V30 41 1 8 37
M  V30 42 1 8 38
M  V30 43 1 9 39
M  V30 44 1 9 40
M  V30 45 1 11 41
M  V30 46 1 11 42
M  V30 47 1 12 43
M  V30 48 1 12 44
M  V30 49 1 13 45
M  V30 50 1 13 46
M  V30 51 1 14 47
M  V30 52 1 14 48
M  V30 53 1 15 49
M  V30 54 1 15 50
M  V30 55 1 16 51
M  V30 56 1 17 52
M  V30 57 1 21 53
M  V30 58 1 22 54
M  V30 59 1 24 55
M  V30 60 1 25 56
M  V30 61 1 26 57
M  V30 62 1 29 58
M  V30 63 1 31 59
M  V30 64 1 32 60
M  V30 65 1 33 61
M  V30 END BOND
M  V30 END CTAB
M  END
>  <Dataset>  (830) 
OralDrugs

>  <Ligand_Instance>  (830) 
nan

>  <PDB_ID>  (830) 
nan

>  <Standardized_SMILES>  (830) 
O=C(c1ccc(OCCN2CCCCC2)cc1)c1c(-c2ccc(O)cc2)sc2cc(O)ccc12

>  <Name>  (830) 
Raloxifene

>  <Pocket>  (830) 
nan

>  <ATP_Site>  (830) 
nan

>  <Peripheral>  (830) 
nan

>  <Num_H_Atoms_ProtBoundConf>  (830) 
nan

>  <Num_Resolved_Atoms>  (830) 
nan

>  <Num_Not_Resolved_Atoms>  (830) 
nan

$$$$
CHEMBL254316
     RDKit          3D

  0  0  0  0  0  0  0  0  0  0999 V3000
M  V30 BEGIN CTAB
M  V30 COUNTS 53 55 0 0 0
M  V30 BEGIN ATOM
M  V30 1 C 1.828653 -5.512509 5.476553 0
M  V30 2 C 2.308273 -4.122978 5.261395 0
M  V30 3 N 2.945290 -3.268704 6.093261 0
M  V30 4 N 3.140375 -2.158966 5.391392 0
M  V30 5 C 2.643399 -2.301946 4.151961 0
M  V30 6 C 2.686932 -1.266173 3.106864 0
M  V30 7 O 3.233047 -0.186787 3.421814 0
M  V30 8 N 2.117284 -1.543399 1.822602 0
M  V30 9 C 2.256490 -0.403849 0.930661 0
M  V30 10 C 1.522066 0.738025 1.608289 0
M  V30 11 C 3.674604 0.027011 0.724531 0
M  V30 12 C 1.545868 -0.696930 -0.331456 0
M  V30 13 N 0.449730 0.034408 -0.625110 0
M  V30 14 C -0.259412 -0.176193 -1.771294 0
M  V30 15 C -1.429037 0.665524 -1.997127 0
M  V30 16 O -2.114728 0.485975 -3.060329 0
M  V30 17 N -1.831966 1.664282 -1.093709 0
M  V30 18 C -2.939149 2.563044 -1.163800 0
M  V30 19 C -4.206512 1.845546 -0.820853 0
M  V30 20 C -5.056356 1.187026 -1.696474 0
M  V30 21 C -6.188469 0.579924 -1.177026 0
M  V30 22 C -6.482828 0.615174 0.162658 0
M  V30 23 F -7.633083 -0.032971 0.498302 0
M  V30 24 C -5.650494 1.264670 1.049069 0
M  V30 25 C -4.523130 1.870408 0.539016 0
M  V30 26 C 0.104693 -1.141762 -2.684688 0
M  V30 27 O -0.645511 -1.308789 -3.819870 0
M  V30 28 C 1.238240 -1.885171 -2.363202 0
M  V30 29 O 1.603578 -2.776928 -3.172128 0
M  V30 30 N 1.906541 -1.641499 -1.219724 0
M  V30 31 C 3.070842 -2.439966 -0.940074 0
M  V30 32 O 2.147565 -3.516822 4.124946 0
M  V30 33 H 0.725135 -5.493573 5.524779 0
M  V30 34 H 2.182552 -5.943381 6.418452 0
M  V30 35 H 2.100964 -6.194171 4.657220 0
M  V30 36 H 1.686784 -2.490373 1.681475 0
M  V30 37 H 0.880450 1.275553 0.873430 0
M  V30 38 H 0.873519 0.391965 2.418525 0
M  V30 39 H 2.241943 1.479084 2.022946 0
M  V30 40 H 3.862352 -0.000664 -0.377467 0
M  V30 41 H 3.838096 1.108584 0.992097 0
M  V30 42 H 4.424799 -0.513645 1.310113 0
M  V30 43 H -1.234944 1.782957 -0.221106 0
M  V30 44 H -3.071540 2.920414 -2.227062 0
M  V30 45 H -2.848915 3.453143 -0.548614 0
M  V30 46 H -4.743419 1.212272 -2.729038 0
M  V30 47 H -6.772602 0.097717 -1.959593 0
M  V30 48 H -5.935723 1.255918 2.082299 0
M  V30 49 H -3.910679 2.364743 1.292254 0
M  V30 50 H -0.440051 -0.947102 -4.732710 0
M  V30 51 H 3.864159 -2.078541 -1.654437 0
M  V30 52 H 3.486236 -2.336056 0.056067 0
M  V30 53 H 2.914155 -3.517498 -1.238476 0
M  V30 END ATOM
M  V30 BEGIN BOND
M  V30 1 1 1 2
M  V30 2 2 2 3
M  V30 3 1 3 4
M  V30 4 2 4 5
M  V30 5 1 5 6
M  V30 6 2 6 7
M  V30 7 1 6 8
M  V30 8 1 8 9
M  V30 9 1 9 10
M  V30 10 1 9 11
M  V30 11 1 9 12
M  V30 12 2 12 13
M  V30 13 1 13 14
M  V30 14 1 14 15
M  V30 15 2 15 16
M  V30 16 1 15 17
M  V30 17 1 17 18
M  V30 18 1 18 19
M  V30 19 2 19 20
M  V30 20 1 20 21
M  V30 21 2 21 22
M  V30 22 1 22 23
M  V30 23 1 22 24
M  V30 24 2 24 25
M  V30 25 2 14 26
M  V30 26 1 26 27
M  V30 27 1 26 28
M  V30 28 2 28 29
M  V30 29 1 28 30
M  V30 30 1 30 31
M  V30 31 1 5 32
M  V30 32 1 32 2
M  V30 33 1 30 12
M  V30 34 1 25 19
M  V30 35 1 1 33
M  V30 36 1 1 34
M  V30 37 1 1 35
M  V30 38 1 8 36
M  V30 39 1 10 37
M  V30 40 1 10 38
M  V30 41 1 10 39
M  V30 42 1 11 40
M  V30 43 1 11 41
M  V30 44 1 11 42
M  V30 45 1 17 43
M  V30 46 1 18 44
M  V30 47 1 18 45
M  V30 48 1 20 46
M  V30 49 1 21 47
M  V30 50 1 24 48
M  V30 51 1 25 49
M  V30 52 1 27 50
M  V30 53 1 31 51
M  V30 54 1 31 52
M  V30 55 1 31 53
M  V30 END BOND
M  V30 END CTAB
M  END
>  <Dataset>  (831) 
OralDrugs

>  <Ligand_Instance>  (831) 
nan

>  <PDB_ID>  (831) 
nan

>  <Standardized_SMILES>  (831) 
Cc1nnc(C(=O)NC(C)(C)c2nc(C(=O)NCc3ccc(F)cc3)c(O)c(=O)n2C)o1

>  <Name>  (831) 
Raltegravir

>  <Pocket>  (831) 
nan

>  <ATP_Site>  (831) 
nan

>  <Peripheral>  (831) 
nan

>  <Num_H_Atoms_ProtBoundConf>  (831) 
nan

>  <Num_Resolved_Atoms>  (831) 
nan

>  <Num_Not_Resolved_Atoms>  (831) 
nan

$$$$
CHEMBL361812
     RDKit          3D

  0  0  0  0  0  0  0  0  0  0999 V3000
M  V30 BEGIN CTAB
M  V30 COUNTS 50 53 0 0 0
M  V30 BEGIN ATOM
M  V30 1 O -0.978757 3.074064 5.530584 0
M  V30 2 C -0.604150 1.871928 5.515296 0
M  V30 3 O -1.314567 1.289529 6.568553 0
M  V30 4 C 0.375142 1.304393 4.544595 0
M  V30 5 C -0.099281 1.555208 3.123886 0
M  V30 6 N 0.845684 1.012023 2.139771 0
M  V30 7 C 0.849194 -0.229306 1.635762 0
M  V30 8 C 1.875867 -0.376378 0.725064 0
M  V30 9 C 2.515146 0.824608 0.680723 0
M  V30 10 C 3.600710 1.256789 -0.048086 0
M  V30 11 C 4.047509 2.538041 0.096450 0
M  V30 12 C 3.443730 3.445249 0.964720 0
M  V30 13 C 2.349132 2.976186 1.686217 0
M  V30 14 C 1.878243 1.659085 1.546586 0
M  V30 15 C 2.036269 -1.708161 0.051547 0
M  V30 16 C 0.606705 -2.115762 -0.321196 0 CFG=2
M  V30 17 N -0.044848 -0.998952 -0.938938 0
M  V30 18 S -0.583277 -1.356654 -2.538363 0
M  V30 19 O 0.572125 -1.742976 -3.442146 0
M  V30 20 O -1.200002 -0.137100 -3.154036 0
M  V30 21 C -1.749700 -2.645661 -2.546337 0
M  V30 22 C -3.078558 -2.300143 -2.393078 0
M  V30 23 C -4.129277 -3.195413 -2.377597 0
M  V30 24 C -3.821656 -4.541477 -2.527620 0
M  V30 25 F -4.852657 -5.428377 -2.512619 0
M  V30 26 C -2.503133 -4.920112 -2.683096 0
M  V30 27 C -1.469898 -3.985458 -2.693303 0
M  V30 28 C -0.051663 -2.478668 0.995399 0
M  V30 29 C -0.077298 -1.351361 1.965983 0
M  V30 30 H -2.335412 1.141758 6.526498 0
M  V30 31 H 0.532746 0.256079 4.781209 0
M  V30 32 H 1.354640 1.822085 4.727825 0
M  V30 33 H -1.107861 1.162178 2.986596 0
M  V30 34 H -0.156832 2.666102 3.019043 0
M  V30 35 H 4.090552 0.589404 -0.725340 0
M  V30 36 H 4.892422 2.965394 -0.433501 0
M  V30 37 H 3.782029 4.461416 1.094954 0
M  V30 38 H 1.792847 3.593852 2.393291 0
M  V30 39 H 2.694474 -1.663163 -0.813266 0
M  V30 40 H 2.421219 -2.390140 0.854529 0
M  V30 41 H 0.642869 -3.013925 -0.963824 0
M  V30 42 H 0.562187 -0.157757 -0.913095 0
M  V30 43 H -3.367089 -1.270317 -2.271882 0
M  V30 44 H -5.162492 -2.891447 -2.255468 0
M  V30 45 H -2.279796 -5.972456 -2.798673 0
M  V30 46 H -0.447067 -4.252604 -2.813663 0
M  V30 47 H 0.557642 -3.340568 1.388907 0
M  V30 48 H -1.060985 -2.943120 0.824531 0
M  V30 49 H 0.174981 -1.785044 2.982375 0
M  V30 50 H -1.116286 -0.914310 1.983496 0
M  V30 END ATOM
M  V30 BEGIN BOND
M  V30 1 2 1 2
M  V30 2 1 2 3
M  V30 3 1 2 4
M  V30 4 1 4 5
M  V30 5 1 5 6
M  V30 6 1 6 7
M  V30 7 2 7 8
M  V30 8 1 8 9
M  V30 9 2 9 10
M  V30 10 1 10 11
M  V30 11 2 11 12
M  V30 12 1 12 13
M  V30 13 2 13 14
M  V30 14 1 8 15
M  V30 15 1 15 16
M  V30 16 1 16 17
M  V30 17 1 17 18
M  V30 18 2 18 19
M  V30 19 2 18 20
M  V30 20 1 18 21
M  V30 21 2 21 22
M  V30 22 1 22 23
M  V30 23 2 23 24
M  V30 24 1 24 25
M  V30 25 1 24 26
M  V30 26 2 26 27
M  V30 27 1 16 28
M  V30 28 1 28 29
M  V30 29 1 14 6
M  V30 30 1 27 21
M  V30 31 1 29 7
M  V30 32 1 14 9
M  V30 33 1 3 30
M  V30 34 1 4 31
M  V30 35 1 4 32
M  V30 36 1 5 33
M  V30 37 1 5 34
M  V30 38 1 10 35
M  V30 39 1 11 36
M  V30 40 1 12 37
M  V30 41 1 13 38
M  V30 42 1 15 39
M  V30 43 1 15 40
M  V30 44 1 16 41 CFG=3
M  V30 45 1 17 42
M  V30 46 1 22 43
M  V30 47 1 23 44
M  V30 48 1 26 45
M  V30 49 1 27 46
M  V30 50 1 28 47
M  V30 51 1 28 48
M  V30 52 1 29 49
M  V30 53 1 29 50
M  V30 END BOND
M  V30 END CTAB
M  END
>  <Dataset>  (832) 
OralDrugs

>  <Ligand_Instance>  (832) 
nan

>  <PDB_ID>  (832) 
nan

>  <Standardized_SMILES>  (832) 
O=C(O)CCn1c2c(c3ccccc31)C[C@H](NS(=O)(=O)c1ccc(F)cc1)CC2

>  <Name>  (832) 
Ramatroban

>  <Pocket>  (832) 
nan

>  <ATP_Site>  (832) 
nan

>  <Peripheral>  (832) 
nan

>  <Num_H_Atoms_ProtBoundConf>  (832) 
nan

>  <Num_Resolved_Atoms>  (832) 
nan

>  <Num_Not_Resolved_Atoms>  (832) 
nan

$$$$
CHEMBL1218
     RDKit          3D

  0  0  0  0  0  0  0  0  0  0999 V3000
M  V30 BEGIN CTAB
M  V30 COUNTS 40 42 0 0 0
M  V30 BEGIN ATOM
M  V30 1 C -2.069213 -3.031839 4.207621 0
M  V30 2 C -2.070928 -3.293043 2.717839 0
M  V30 3 C -0.726174 -2.988822 2.151747 0
M  V30 4 O 0.183183 -2.585580 2.897061 0
M  V30 5 N -0.612711 -3.200045 0.751023 0
M  V30 6 C 0.636917 -2.945478 0.062492 0
M  V30 7 C 1.065249 -1.520072 0.197288 0
M  V30 8 C 0.073769 -0.537579 -0.362884 0 CFG=2
M  V30 9 C -0.171901 -0.754555 -1.822804 0
M  V30 10 C 0.952271 -0.001059 -2.479053 0
M  V30 11 C 1.230844 1.131643 -1.571582 0
M  V30 12 C 1.882770 2.312533 -1.858327 0
M  V30 13 C 2.028734 3.244442 -0.827877 0
M  V30 14 C 1.513938 2.931218 0.414090 0
M  V30 15 C 0.865789 1.736936 0.665991 0
M  V30 16 C 0.711388 0.804662 -0.336287 0
M  V30 17 C 0.434088 1.719123 2.108937 0
M  V30 18 C 1.523037 2.646319 2.667835 0
M  V30 19 O 1.497947 3.638698 1.628811 0
M  V30 20 H -1.071620 -2.732503 4.566293 0
M  V30 21 H -2.750847 -2.168874 4.459194 0
M  V30 22 H -2.388516 -3.911468 4.787103 0
M  V30 23 H -2.337885 -4.355966 2.550572 0
M  V30 24 H -2.861822 -2.668529 2.225011 0
M  V30 25 H -1.414322 -3.544468 0.158386 0
M  V30 26 H 0.637859 -3.322272 -0.958590 0
M  V30 27 H 1.399222 -3.556620 0.615365 0
M  V30 28 H 2.026986 -1.381089 -0.335620 0
M  V30 29 H 1.241760 -1.296835 1.265357 0
M  V30 30 H -0.852491 -0.546702 0.244322 0
M  V30 31 H -0.183712 -1.833186 -2.084896 0
M  V30 32 H -1.165043 -0.315304 -2.075070 0
M  V30 33 H 0.658323 0.368980 -3.492499 0
M  V30 34 H 1.837237 -0.654169 -2.583897 0
M  V30 35 H 2.275424 2.528858 -2.842631 0
M  V30 36 H 2.533863 4.170474 -1.031946 0
M  V30 37 H -0.544010 2.231087 2.209508 0
M  V30 38 H 0.476518 0.709874 2.545122 0
M  V30 39 H 1.273010 3.063607 3.641943 0
M  V30 40 H 2.464546 2.059157 2.630882 0
M  V30 END ATOM
M  V30 BEGIN BOND
M  V30 1 1 1 2
M  V30 2 1 2 3
M  V30 3 2 3 4
M  V30 4 1 3 5
M  V30 5 1 5 6
M  V30 6 1 6 7
M  V30 7 1 7 8
M  V30 8 1 8 9
M  V30 9 1 9 10
M  V30 10 1 10 11
M  V30 11 2 11 12
M  V30 12 1 12 13
M  V30 13 2 13 14
M  V30 14 1 14 15
M  V30 15 2 15 16
M  V30 16 1 15 17
M  V30 17 1 17 18
M  V30 18 1 18 19
M  V30 19 1 16 8
M  V30 20 1 16 11
M  V30 21 1 19 14
M  V30 22 1 1 20
M  V30 23 1 1 21
M  V30 24 1 1 22
M  V30 25 1 2 23
M  V30 26 1 2 24
M  V30 27 1 5 25
M  V30 28 1 6 26
M  V30 29 1 6 27
M  V30 30 1 7 28
M  V30 31 1 7 29
M  V30 32 1 8 30 CFG=1
M  V30 33 1 9 31
M  V30 34 1 9 32
M  V30 35 1 10 33
M  V30 36 1 10 34
M  V30 37 1 12 35
M  V30 38 1 13 36
M  V30 39 1 17 37
M  V30 40 1 17 38
M  V30 41 1 18 39
M  V30 42 1 18 40
M  V30 END BOND
M  V30 END CTAB
M  END
>  <Dataset>  (833) 
OralDrugs

>  <Ligand_Instance>  (833) 
nan

>  <PDB_ID>  (833) 
nan

>  <Standardized_SMILES>  (833) 
CCC(=O)NCC[C@@H]1CCc2ccc3c(c21)CCO3

>  <Name>  (833) 
Ramelteon

>  <Pocket>  (833) 
nan

>  <ATP_Site>  (833) 
nan

>  <Peripheral>  (833) 
nan

>  <Num_H_Atoms_ProtBoundConf>  (833) 
nan

>  <Num_Resolved_Atoms>  (833) 
nan

>  <Num_Not_Resolved_Atoms>  (833) 
nan

$$$$
CHEMBL1790041
     RDKit          3D

  0  0  0  0  0  0  0  0  0  0999 V3000
M  V30 BEGIN CTAB
M  V30 COUNTS 43 43 0 0 0
M  V30 BEGIN ATOM
M  V30 1 C -0.447766 -5.330145 1.197380 0
M  V30 2 N 0.243629 -5.538296 -0.059646 0
M  V30 3 C 1.070654 -4.414403 -0.316951 0
M  V30 4 C 2.221217 -4.700511 -0.896536 0
M  V30 5 N 3.166012 -3.712040 -1.225398 0 CHG=1 VAL=4
M  V30 6 O 4.104696 -2.978257 -0.803476 0
M  V30 7 O 3.826721 -2.831369 -2.023321 0 CHG=-1 VAL=1
M  V30 8 N 0.762072 -3.074207 -0.011045 0
M  V30 9 C 0.598819 -1.768795 -0.652926 0
M  V30 10 C -0.602715 -1.690511 -1.536444 0
M  V30 11 S -0.754169 -0.081760 -2.285656 0
M  V30 12 C -1.206431 1.273716 -1.254278 0
M  V30 13 C -0.239085 1.669765 -0.207874 0
M  V30 14 C 0.871803 2.469188 -0.269272 0
M  V30 15 C 1.443035 2.531970 1.002460 0
M  V30 16 C 0.627759 1.747475 1.788851 0
M  V30 17 C 0.753183 1.448288 3.241742 0
M  V30 18 N 0.054895 2.402670 4.062545 0
M  V30 19 C 0.526296 3.745771 3.909510 0
M  V30 20 C -1.363770 2.358896 3.808252 0
M  V30 21 O -0.327505 1.278803 1.022615 0
M  V30 22 H -1.011417 -6.240118 1.484704 0
M  V30 23 H -1.138946 -4.464236 1.135845 0
M  V30 24 H 0.262772 -5.112514 2.038194 0
M  V30 25 H 0.195660 -6.366222 -0.725037 0
M  V30 26 H 3.019035 -5.264040 -1.342131 0
M  V30 27 H 0.622140 -3.140839 1.042442 0
M  V30 28 H 1.509217 -1.552424 -1.292238 0
M  V30 29 H 0.608505 -0.992398 0.108009 0
M  V30 30 H -0.453490 -2.464063 -2.351518 0
M  V30 31 H -1.540163 -1.999307 -1.011735 0
M  V30 32 H -1.426500 2.189442 -1.856850 0
M  V30 33 H -2.215215 1.032647 -0.782815 0
M  V30 34 H 1.232828 2.960479 -1.151538 0
M  V30 35 H 2.322687 3.066268 1.317643 0
M  V30 36 H 1.813637 1.324351 3.530593 0
M  V30 37 H 0.241475 0.465728 3.421912 0
M  V30 38 H -0.170181 4.413364 4.467585 0
M  V30 39 H 1.546638 3.819769 4.349884 0
M  V30 40 H 0.520334 4.042248 2.837894 0
M  V30 41 H -1.946600 2.225574 4.729925 0
M  V30 42 H -1.686471 3.315856 3.337693 0
M  V30 43 H -1.660333 1.554807 3.109800 0
M  V30 END ATOM
M  V30 BEGIN BOND
M  V30 1 1 1 2
M  V30 2 1 2 3
M  V30 3 2 3 4 CFG=2
M  V30 4 1 4 5
M  V30 5 2 5 6
M  V30 6 1 5 7
M  V30 7 1 3 8
M  V30 8 1 8 9
M  V30 9 1 9 10
M  V30 10 1 10 11
M  V30 11 1 11 12
M  V30 12 1 12 13
M  V30 13 2 13 14
M  V30 14 1 14 15
M  V30 15 2 15 16
M  V30 16 1 16 17
M  V30 17 1 17 18
M  V30 18 1 18 19
M  V30 19 1 18 20
M  V30 20 1 16 21
M  V30 21 1 21 13
M  V30 22 1 1 22
M  V30 23 1 1 23
M  V30 24 1 1 24
M  V30 25 1 2 25
M  V30 26 1 4 26
M  V30 27 1 8 27
M  V30 28 1 9 28
M  V30 29 1 9 29
M  V30 30 1 10 30
M  V30 31 1 10 31
M  V30 32 1 12 32
M  V30 33 1 12 33
M  V30 34 1 14 34
M  V30 35 1 15 35
M  V30 36 1 17 36
M  V30 37 1 17 37
M  V30 38 1 19 38
M  V30 39 1 19 39
M  V30 40 1 19 40
M  V30 41 1 20 41
M  V30 42 1 20 42
M  V30 43 1 20 43
M  V30 END BOND
M  V30 END CTAB
M  END
>  <Dataset>  (834) 
OralDrugs

>  <Ligand_Instance>  (834) 
nan

>  <PDB_ID>  (834) 
nan

>  <Standardized_SMILES>  (834) 
CNC(=C[N+](=O)[O-])NCCSCc1ccc(CN(C)C)o1

>  <Name>  (834) 
Ranitidine

>  <Pocket>  (834) 
nan

>  <ATP_Site>  (834) 
nan

>  <Peripheral>  (834) 
nan

>  <Num_H_Atoms_ProtBoundConf>  (834) 
nan

>  <Num_Resolved_Atoms>  (834) 
nan

>  <Num_Not_Resolved_Atoms>  (834) 
nan

$$$$
CHEMBL1404
     RDKit          3D

  0  0  0  0  0  0  0  0  0  0999 V3000
M  V30 BEGIN CTAB
M  V30 COUNTS 64 66 0 0 0
M  V30 BEGIN ATOM
M  V30 1 C 1.737514 1.352624 5.120834 0
M  V30 2 O 1.953475 1.286155 3.745229 0
M  V30 3 C 2.636547 0.287563 3.107128 0
M  V30 4 C 3.172604 -0.750025 3.823222 0
M  V30 5 C 3.856108 -1.747499 3.163757 0
M  V30 6 C 3.988366 -1.682075 1.792957 0
M  V30 7 C 3.456063 -0.642669 1.046868 0
M  V30 8 C 2.767351 0.354481 1.739998 0
M  V30 9 O 2.205502 1.423134 1.061562 0
M  V30 10 C 2.258886 1.621621 -0.316809 0
M  V30 11 C 1.584915 2.867938 -0.815818 0
M  V30 12 O 2.096680 4.013014 -0.187538 0
M  V30 13 C 0.137633 2.843571 -1.025951 0
M  V30 14 N -0.755982 2.891535 0.098529 0
M  V30 15 C -2.074481 3.182129 -0.446221 0
M  V30 16 C -2.777088 2.010959 -0.996241 0
M  V30 17 N -2.849700 0.859823 -0.115789 0
M  V30 18 C -2.232429 -0.229686 -0.798628 0
M  V30 19 C -2.471842 -1.559542 -0.198923 0
M  V30 20 O -3.175307 -1.862436 0.805419 0
M  V30 21 N -1.768140 -2.545734 -0.935641 0
M  V30 22 C -1.645777 -3.947473 -0.854652 0
M  V30 23 C -2.325301 -4.756847 -1.771205 0
M  V30 24 C -3.131339 -4.080210 -2.839170 0
M  V30 25 C -2.325869 -6.141142 -1.807736 0
M  V30 26 C -1.559944 -6.759455 -0.813688 0
M  V30 27 C -0.889509 -5.982306 0.089600 0
M  V30 28 C -0.914421 -4.610689 0.091910 0
M  V30 29 C -0.213035 -3.731192 1.080383 0
M  V30 30 C -2.212041 1.260578 1.117574 0
M  V30 31 C -0.788386 1.653516 0.860653 0
M  V30 32 H 0.888247 0.693063 5.442090 0
M  V30 33 H 2.655198 1.081427 5.659151 0
M  V30 34 H 1.477357 2.410167 5.368257 0
M  V30 35 H 3.074861 -0.813892 4.892630 0
M  V30 36 H 4.282867 -2.573790 3.744700 0
M  V30 37 H 4.533530 -2.479657 1.293772 0
M  V30 38 H 3.559130 -0.584352 -0.034832 0
M  V30 39 H 3.350948 1.607873 -0.589580 0
M  V30 40 H 1.840528 0.758358 -0.893429 0
M  V30 41 H 2.033612 2.983384 -1.879996 0
M  V30 42 H 2.516125 3.687079 0.647500 0
M  V30 43 H -0.129847 3.761368 -1.634618 0
M  V30 44 H -0.117652 2.006527 -1.719220 0
M  V30 45 H -2.629278 3.783941 0.282165 0
M  V30 46 H -1.893522 3.887471 -1.313544 0
M  V30 47 H -3.862224 2.321688 -1.118422 0
M  V30 48 H -2.476307 1.716309 -2.014031 0
M  V30 49 H -1.180253 -0.073610 -1.087347 0
M  V30 50 H -2.763909 -0.285672 -1.806992 0
M  V30 51 H -1.134141 -2.401380 -1.771581 0
M  V30 52 H -2.844003 -4.492034 -3.851566 0
M  V30 53 H -2.904958 -3.003568 -2.906313 0
M  V30 54 H -4.204411 -4.213366 -2.617264 0
M  V30 55 H -2.887294 -6.677950 -2.562214 0
M  V30 56 H -1.514658 -7.833877 -0.785257 0
M  V30 57 H -0.280371 -6.450252 0.877317 0
M  V30 58 H 0.170698 -2.806128 0.637846 0
M  V30 59 H 0.603369 -4.315364 1.506867 0
M  V30 60 H -0.985643 -3.523040 1.864662 0
M  V30 61 H -2.310223 0.490109 1.908686 0
M  V30 62 H -2.756463 2.167316 1.484214 0
M  V30 63 H -0.275686 0.814400 0.402454 0
M  V30 64 H -0.366217 1.892409 1.886000 0
M  V30 END ATOM
M  V30 BEGIN BOND
M  V30 1 1 1 2
M  V30 2 1 2 3
M  V30 3 2 3 4
M  V30 4 1 4 5
M  V30 5 2 5 6
M  V30 6 1 6 7
M  V30 7 2 7 8
M  V30 8 1 8 9
M  V30 9 1 9 10
M  V30 10 1 10 11
M  V30 11 1 11 12
M  V30 12 1 11 13
M  V30 13 1 13 14
M  V30 14 1 14 15
M  V30 15 1 15 16
M  V30 16 1 16 17
M  V30 17 1 17 18
M  V30 18 1 18 19
M  V30 19 2 19 20
M  V30 20 1 19 21
M  V30 21 1 21 22
M  V30 22 2 22 23
M  V30 23 1 23 24
M  V30 24 1 23 25
M  V30 25 2 25 26
M  V30 26 1 26 27
M  V30 27 2 27 28
M  V30 28 1 28 29
M  V30 29 1 17 30
M  V30 30 1 30 31
M  V30 31 1 8 3
M  V30 32 1 31 14
M  V30 33 1 28 22
M  V30 34 1 1 32
M  V30 35 1 1 33
M  V30 36 1 1 34
M  V30 37 1 4 35
M  V30 38 1 5 36
M  V30 39 1 6 37
M  V30 40 1 7 38
M  V30 41 1 10 39
M  V30 42 1 10 40
M  V30 43 1 11 41
M  V30 44 1 12 42
M  V30 45 1 13 43
M  V30 46 1 13 44
M  V30 47 1 15 45
M  V30 48 1 15 46
M  V30 49 1 16 47
M  V30 50 1 16 48
M  V30 51 1 18 49
M  V30 52 1 18 50
M  V30 53 1 21 51
M  V30 54 1 24 52
M  V30 55 1 24 53
M  V30 56 1 24 54
M  V30 57 1 25 55
M  V30 58 1 26 56
M  V30 59 1 27 57
M  V30 60 1 29 58
M  V30 61 1 29 59
M  V30 62 1 29 60
M  V30 63 1 30 61
M  V30 64 1 30 62
M  V30 65 1 31 63
M  V30 66 1 31 64
M  V30 END BOND
M  V30 END CTAB
M  END
>  <Dataset>  (835) 
OralDrugs

>  <Ligand_Instance>  (835) 
nan

>  <PDB_ID>  (835) 
nan

>  <Standardized_SMILES>  (835) 
COc1ccccc1OCC(O)CN1CCN(CC(=O)Nc2c(C)cccc2C)CC1

>  <Name>  (835) 
Ranolazine

>  <Pocket>  (835) 
nan

>  <ATP_Site>  (835) 
nan

>  <Peripheral>  (835) 
nan

>  <Num_H_Atoms_ProtBoundConf>  (835) 
nan

>  <Num_Resolved_Atoms>  (835) 
nan

>  <Num_Not_Resolved_Atoms>  (835) 
nan

$$$$
CHEMBL887
     RDKit          3D

  0  0  0  0  0  0  0  0  0  0999 V3000
M  V30 BEGIN CTAB
M  V30 COUNTS 26 27 0 0 0
M  V30 BEGIN ATOM
M  V30 1 C 2.014704 0.052715 4.461412 0
M  V30 2 C 0.980237 -0.320397 3.949747 0
M  V30 3 C -0.295774 -0.791690 3.341081 0
M  V30 4 N -0.712781 0.222349 2.397379 0
M  V30 5 C 0.179209 0.243299 1.301802 0 CFG=2
M  V30 6 C -0.000633 1.484948 0.414815 0
M  V30 7 C 0.950132 1.039406 -0.719638 0
M  V30 8 C 0.340954 -0.313509 -1.000972 0
M  V30 9 C 0.263263 -0.936450 -2.222758 0
M  V30 10 C -0.361904 -2.159795 -2.242082 0
M  V30 11 C -0.871270 -2.701981 -1.081885 0
M  V30 12 C -0.745964 -2.003835 0.095951 0
M  V30 13 C -0.141494 -0.777000 0.233446 0
M  V30 14 H 2.922386 0.375626 4.892508 0
M  V30 15 H -1.044733 -0.966834 4.138997 0
M  V30 16 H -0.041900 -1.735051 2.824432 0
M  V30 17 H -0.761777 1.126649 2.873258 0
M  V30 18 H 1.253955 0.150382 1.535743 0
M  V30 19 H 0.324041 2.406012 0.890457 0
M  V30 20 H -1.009708 1.471055 -0.014157 0
M  V30 21 H 0.867175 1.715110 -1.594138 0
M  V30 22 H 1.956028 0.968195 -0.295727 0
M  V30 23 H 0.673031 -0.482424 -3.110649 0
M  V30 24 H -0.431718 -2.662992 -3.193296 0
M  V30 25 H -1.356094 -3.657746 -1.115051 0
M  V30 26 H -1.173408 -2.482970 0.957469 0
M  V30 END ATOM
M  V30 BEGIN BOND
M  V30 1 3 1 2
M  V30 2 1 2 3
M  V30 3 1 3 4
M  V30 4 1 4 5
M  V30 5 1 5 6
M  V30 6 1 6 7
M  V30 7 1 7 8
M  V30 8 2 8 9
M  V30 9 1 9 10
M  V30 10 2 10 11
M  V30 11 1 11 12
M  V30 12 2 12 13
M  V30 13 1 13 5
M  V30 14 1 13 8
M  V30 15 1 1 14
M  V30 16 1 3 15
M  V30 17 1 3 16
M  V30 18 1 4 17
M  V30 19 1 5 18 CFG=1
M  V30 20 1 6 19
M  V30 21 1 6 20
M  V30 22 1 7 21
M  V30 23 1 7 22
M  V30 24 1 9 23
M  V30 25 1 10 24
M  V30 26 1 11 25
M  V30 27 1 12 26
M  V30 END BOND
M  V30 END CTAB
M  END
>  <Dataset>  (836) 
OralDrugs

>  <Ligand_Instance>  (836) 
nan

>  <PDB_ID>  (836) 
nan

>  <Standardized_SMILES>  (836) 
C#CCN[C@@H]1CCc2ccccc21

>  <Name>  (836) 
Rasagiline

>  <Pocket>  (836) 
nan

>  <ATP_Site>  (836) 
nan

>  <Peripheral>  (836) 
nan

>  <Num_H_Atoms_ProtBoundConf>  (836) 
nan

>  <Num_Resolved_Atoms>  (836) 
nan

>  <Num_Not_Resolved_Atoms>  (836) 
nan

$$$$
CHEMBL14370
     RDKit          3D

  0  0  0  0  0  0  0  0  0  0999 V3000
M  V30 BEGIN CTAB
M  V30 COUNTS 46 48 0 0 0
M  V30 BEGIN ATOM
M  V30 1 C 2.825747 0.699533 3.689284 0
M  V30 2 C 3.337214 -0.007781 2.467443 0
M  V30 3 O 2.333176 -0.384090 1.559891 0
M  V30 4 C 2.628278 -1.055179 0.365628 0
M  V30 5 C 3.980081 -1.302833 0.181209 0
M  V30 6 C 4.305765 -1.965444 -0.992434 0
M  V30 7 C 3.311685 -2.340873 -1.901703 0
M  V30 8 C 2.016923 -2.028747 -1.584260 0
M  V30 9 C 1.581819 -1.376199 -0.451274 0
M  V30 10 O 0.271409 -1.166094 -0.327577 0
M  V30 11 C -0.525940 -0.547277 0.617370 0
M  V30 12 C -1.215608 -1.557044 1.495239 0
M  V30 13 C -0.379151 -2.513663 2.038989 0
M  V30 14 C -0.836452 -3.531645 2.865621 0
M  V30 15 C -2.206611 -3.544532 3.127685 0
M  V30 16 C -3.074304 -2.605507 2.603838 0
M  V30 17 C -2.532894 -1.631078 1.792953 0
M  V30 18 C -1.476128 0.365374 -0.060547 0
M  V30 19 C -0.810632 1.195012 -1.093996 0
M  V30 20 N -1.348372 2.475164 -1.315891 0
M  V30 21 C -2.576669 2.854842 -0.749502 0
M  V30 22 C -3.246828 1.709871 -0.043731 0
M  V30 23 O -2.305709 1.103695 0.784311 0
M  V30 24 H 2.683708 1.792776 3.491267 0
M  V30 25 H 3.570963 0.528969 4.493961 0
M  V30 26 H 1.852763 0.263032 4.011114 0
M  V30 27 H 3.905828 -0.922104 2.802679 0
M  V30 28 H 4.054361 0.707607 1.964747 0
M  V30 29 H 4.732885 -1.009349 0.891448 0
M  V30 30 H 5.333196 -2.198353 -1.218952 0
M  V30 31 H 3.627236 -2.847789 -2.785428 0
M  V30 32 H 1.318999 -2.367165 -2.367100 0
M  V30 33 H 0.112582 0.022678 1.325484 0
M  V30 34 H 0.704996 -2.589315 1.895515 0
M  V30 35 H -0.261563 -4.317379 3.333396 0
M  V30 36 H -2.698080 -4.294559 3.765432 0
M  V30 37 H -4.133780 -2.623441 2.811101 0
M  V30 38 H -3.189047 -0.908809 1.377453 0
M  V30 39 H -2.200666 -0.304776 -0.620658 0
M  V30 40 H 0.277014 1.325933 -0.822129 0
M  V30 41 H -0.757305 0.667060 -2.092306 0
M  V30 42 H -0.738507 3.190378 -1.706826 0
M  V30 43 H -2.377239 3.620396 0.061602 0
M  V30 44 H -3.285272 3.333733 -1.481277 0
M  V30 45 H -4.142169 2.042964 0.535512 0
M  V30 46 H -3.559406 0.995537 -0.846683 0
M  V30 END ATOM
M  V30 BEGIN BOND
M  V30 1 1 1 2
M  V30 2 1 2 3
M  V30 3 1 3 4
M  V30 4 2 4 5
M  V30 5 1 5 6
M  V30 6 2 6 7
M  V30 7 1 7 8
M  V30 8 2 8 9
M  V30 9 1 9 10
M  V30 10 1 10 11
M  V30 11 1 11 12
M  V30 12 2 12 13
M  V30 13 1 13 14
M  V30 14 2 14 15
M  V30 15 1 15 16
M  V30 16 2 16 17
M  V30 17 1 11 18
M  V30 18 1 18 19
M  V30 19 1 19 20
M  V30 20 1 20 21
M  V30 21 1 21 22
M  V30 22 1 22 23
M  V30 23 1 9 4
M  V30 24 1 17 12
M  V30 25 1 23 18
M  V30 26 1 1 24
M  V30 27 1 1 25
M  V30 28 1 1 26
M  V30 29 1 2 27
M  V30 30 1 2 28
M  V30 31 1 5 29
M  V30 32 1 6 30
M  V30 33 1 7 31
M  V30 34 1 8 32
M  V30 35 1 11 33
M  V30 36 1 13 34
M  V30 37 1 14 35
M  V30 38 1 15 36
M  V30 39 1 16 37
M  V30 40 1 17 38
M  V30 41 1 18 39
M  V30 42 1 19 40
M  V30 43 1 19 41
M  V30 44 1 20 42
M  V30 45 1 21 43
M  V30 46 1 21 44
M  V30 47 1 22 45
M  V30 48 1 22 46
M  V30 END BOND
M  V30 END CTAB
M  END
>  <Dataset>  (837) 
OralDrugs

>  <Ligand_Instance>  (837) 
nan

>  <PDB_ID>  (837) 
nan

>  <Standardized_SMILES>  (837) 
CCOc1ccccc1OC(c1ccccc1)C1CNCCO1

>  <Name>  (837) 
Reboxetine

>  <Pocket>  (837) 
nan

>  <ATP_Site>  (837) 
nan

>  <Peripheral>  (837) 
nan

>  <Num_H_Atoms_ProtBoundConf>  (837) 
nan

>  <Num_Resolved_Atoms>  (837) 
nan

>  <Num_Not_Resolved_Atoms>  (837) 
nan

$$$$
CHEMBL1946170
     RDKit          3D

  0  0  0  0  0  0  0  0  0  0999 V3000
M  V30 BEGIN CTAB
M  V30 COUNTS 48 50 0 0 0
M  V30 BEGIN ATOM
M  V30 1 C -0.163879 -3.791208 -3.008761 0
M  V30 2 N 0.632239 -2.810986 -3.722065 0
M  V30 3 C 0.877936 -1.671632 -2.890175 0
M  V30 4 O 0.347869 -1.795110 -1.749999 0
M  V30 5 C 1.650322 -0.508507 -3.315553 0
M  V30 6 C 1.786176 0.496152 -2.384500 0
M  V30 7 C 2.506395 1.618677 -2.733378 0
M  V30 8 O 2.629288 2.630764 -1.761308 0
M  V30 9 C 2.024790 2.459408 -0.499465 0
M  V30 10 C 2.610152 1.880051 0.610636 0
M  V30 11 C 1.874938 1.789092 1.777835 0
M  V30 12 C 0.572490 2.273972 1.824173 0
M  V30 13 N -0.006726 2.080100 3.126110 0
M  V30 14 C -0.680733 0.814120 3.230369 0
M  V30 15 O -0.745006 -0.011571 2.284394 0
M  V30 16 N -1.344067 0.362169 4.409596 0
M  V30 17 C -1.990362 -0.924414 4.411061 0
M  V30 18 C -3.328647 -0.921838 4.015649 0
M  V30 19 C -4.018051 -2.131869 3.992947 0
M  V30 20 C -3.413617 -3.340892 4.352002 0
M  V30 21 Cl -4.299144 -4.851877 4.316378 0
M  V30 22 C -2.078480 -3.297216 4.739575 0
M  V30 23 C -1.362786 -4.526672 5.134528 0
M  V30 24 F -0.048478 -4.301457 5.488829 0
M  V30 25 F -2.106263 -5.096455 6.157168 0
M  V30 26 F -1.444472 -5.417256 4.071980 0
M  V30 27 C -1.369914 -2.114032 4.771944 0
M  V30 28 C -0.012262 2.852862 0.714801 0
M  V30 29 F -1.274507 3.276576 0.904272 0
M  V30 30 C 0.727662 2.940886 -0.448866 0
M  V30 31 C 3.107248 1.825164 -3.942192 0
M  V30 32 C 2.924336 0.761646 -4.832244 0
M  V30 33 N 2.218829 -0.366248 -4.526067 0
M  V30 34 H -1.111276 -3.356290 -2.616486 0
M  V30 35 H 0.461970 -4.157522 -2.165082 0
M  V30 36 H -0.392304 -4.665446 -3.644813 0
M  V30 37 H 1.036664 -2.804197 -4.701884 0
M  V30 38 H 1.333814 0.410901 -1.386172 0
M  V30 39 H 3.625720 1.532637 0.478549 0
M  V30 40 H 2.418578 1.321924 2.586990 0
M  V30 41 H -0.024025 2.688182 3.997389 0
M  V30 42 H -1.336962 1.002817 5.259108 0
M  V30 43 H -3.865003 -0.038508 3.725350 0
M  V30 44 H -5.074279 -2.150091 3.683898 0
M  V30 45 H -0.328518 -2.029106 5.066650 0
M  V30 46 H 0.181169 3.409736 -1.259850 0
M  V30 47 H 3.663765 2.684843 -4.221441 0
M  V30 48 H 3.351436 0.800507 -5.827155 0
M  V30 END ATOM
M  V30 BEGIN BOND
M  V30 1 1 1 2
M  V30 2 1 2 3
M  V30 3 2 3 4
M  V30 4 1 3 5
M  V30 5 2 5 6
M  V30 6 1 6 7
M  V30 7 1 7 8
M  V30 8 1 8 9
M  V30 9 2 9 10
M  V30 10 1 10 11
M  V30 11 2 11 12
M  V30 12 1 12 13
M  V30 13 1 13 14
M  V30 14 2 14 15
M  V30 15 1 14 16
M  V30 16 1 16 17
M  V30 17 2 17 18
M  V30 18 1 18 19
M  V30 19 2 19 20
M  V30 20 1 20 21
M  V30 21 1 20 22
M  V30 22 1 22 23
M  V30 23 1 23 24
M  V30 24 1 23 25
M  V30 25 1 23 26
M  V30 26 2 22 27
M  V30 27 1 12 28
M  V30 28 1 28 29
M  V30 29 2 28 30
M  V30 30 2 7 31
M  V30 31 1 31 32
M  V30 32 2 32 33
M  V30 33 1 33 5
M  V30 34 1 30 9
M  V30 35 1 27 17
M  V30 36 1 1 34
M  V30 37 1 1 35
M  V30 38 1 1 36
M  V30 39 1 2 37
M  V30 40 1 6 38
M  V30 41 1 10 39
M  V30 42 1 11 40
M  V30 43 1 13 41
M  V30 44 1 16 42
M  V30 45 1 18 43
M  V30 46 1 19 44
M  V30 47 1 27 45
M  V30 48 1 30 46
M  V30 49 1 31 47
M  V30 50 1 32 48
M  V30 END BOND
M  V30 END CTAB
M  END
>  <Dataset>  (838) 
OralDrugs

>  <Ligand_Instance>  (838) 
nan

>  <PDB_ID>  (838) 
nan

>  <Standardized_SMILES>  (838) 
CNC(=O)c1cc(Oc2ccc(NC(=O)Nc3ccc(Cl)c(C(F)(F)F)c3)c(F)c2)ccn1

>  <Name>  (838) 
Regorafenib

>  <Pocket>  (838) 
nan

>  <ATP_Site>  (838) 
nan

>  <Peripheral>  (838) 
nan

>  <Num_H_Atoms_ProtBoundConf>  (838) 
nan

>  <Num_Resolved_Atoms>  (838) 
nan

>  <Num_Not_Resolved_Atoms>  (838) 
nan

$$$$
CHEMBL1800159
     RDKit          3D

  0  0  0  0  0  0  0  0  0  0999 V3000
M  V30 BEGIN CTAB
M  V30 COUNTS 71 75 0 0 0
M  V30 BEGIN ATOM
M  V30 1 C 5.592074 -8.096433 -3.091821 0
M  V30 2 O 6.203473 -6.860427 -3.286586 0
M  V30 3 N 5.460290 -6.051697 -4.075650 0
M  V30 4 C 4.528134 -5.231742 -3.385919 0
M  V30 5 O 4.405140 -5.259607 -2.123497 0
M  V30 6 N 3.666290 -4.319761 -4.071826 0
M  V30 7 C 2.741701 -3.508890 -3.356211 0
M  V30 8 C 3.176149 -2.278518 -2.934013 0
M  V30 9 C 2.289353 -1.486776 -2.243162 0
M  V30 10 C 0.969670 -1.845179 -1.937257 0
M  V30 11 C 0.111784 -0.918427 -1.177241 0
M  V30 12 S 0.889865 0.548453 -0.603233 0
M  V30 13 C -0.459527 1.257353 0.174063 0
M  V30 14 C -1.395370 0.362802 -0.043124 0
M  V30 15 C -1.118347 -0.753174 -0.732328 0
M  V30 16 C -2.104036 -1.827307 -1.055395 0
M  V30 17 N -1.850555 -2.934102 -0.161331 0
M  V30 18 C -2.714930 -4.056912 -0.336516 0
M  V30 19 C -1.675694 -2.485940 1.183278 0
M  V30 20 C -2.615652 0.773437 0.532256 0
M  V30 21 O -3.685090 0.133497 0.495279 0
M  V30 22 N -2.699060 1.940462 1.189285 0
M  V30 23 C -3.965708 2.337093 1.769925 0
M  V30 24 C -4.794851 3.295118 1.261081 0
M  V30 25 C -5.976935 3.597510 1.893621 0
M  V30 26 C -6.257862 2.886995 3.042779 0
M  V30 27 O -7.447983 3.167195 3.710771 0
M  V30 28 C -7.818155 2.485622 4.900568 0
M  V30 29 N -5.445390 1.943023 3.547758 0
M  V30 30 N -4.319059 1.682349 2.910226 0
M  V30 31 C -1.682246 2.803715 1.364268 0
M  V30 32 O -1.892097 3.851068 1.986086 0
M  V30 33 N -0.467484 2.480194 0.840820 0
M  V30 34 C 0.679765 3.335783 1.000765 0
M  V30 35 C 1.556090 3.003494 2.132760 0
M  V30 36 C 1.385597 3.153098 3.478039 0
M  V30 37 F 0.233250 3.680765 3.915978 0
M  V30 38 C 2.274754 2.833634 4.472094 0
M  V30 39 C 3.493558 2.298497 4.134465 0
M  V30 40 C 3.763784 2.108124 2.793127 0
M  V30 41 C 2.818867 2.454545 1.853006 0
M  V30 42 F 3.312251 2.210964 0.605222 0
M  V30 43 C 0.675231 -3.071208 -2.407331 0
M  V30 44 C 1.464242 -3.950570 -3.104551 0
M  V30 45 H 6.328718 -8.925926 -3.117574 0
M  V30 46 H 4.857396 -8.285648 -3.885478 0
M  V30 47 H 5.065436 -8.088966 -2.096396 0
M  V30 48 H 5.525347 -5.993633 -5.117253 0
M  V30 49 H 3.797735 -4.325294 -5.121036 0
M  V30 50 H 4.183489 -1.966310 -3.149538 0
M  V30 51 H 2.741960 -0.523465 -1.954149 0
M  V30 52 H -2.033737 -2.197935 -2.092812 0
M  V30 53 H -3.137308 -1.419413 -0.878455 0
M  V30 54 H -2.985145 -4.442791 0.664592 0
M  V30 55 H -2.202204 -4.807211 -0.972007 0
M  V30 56 H -3.630364 -3.671332 -0.872409 0
M  V30 57 H -1.252880 -3.339087 1.791492 0
M  V30 58 H -2.640506 -2.165098 1.660587 0
M  V30 59 H -0.918177 -1.699317 1.211582 0
M  V30 60 H -4.455497 3.764662 0.369491 0
M  V30 61 H -6.615168 4.351600 1.480077 0
M  V30 62 H -7.593348 3.127631 5.787958 0
M  V30 63 H -7.226919 1.549105 5.029533 0
M  V30 64 H -8.894577 2.237290 4.843339 0
M  V30 65 H 1.303400 3.363843 0.070751 0
M  V30 66 H 0.258993 4.347489 1.217269 0
M  V30 67 H 2.050891 2.988533 5.517969 0
M  V30 68 H 4.192363 2.046628 4.917485 0
M  V30 69 H 4.739983 1.684756 2.608969 0
M  V30 70 H -0.291282 -3.503333 -2.250344 0
M  V30 71 H 1.163394 -4.924328 -3.454571 0
M  V30 END ATOM
M  V30 BEGIN BOND
M  V30 1 1 1 2
M  V30 2 1 2 3
M  V30 3 1 3 4
M  V30 4 2 4 5
M  V30 5 1 4 6
M  V30 6 1 6 7
M  V30 7 2 7 8
M  V30 8 1 8 9
M  V30 9 2 9 10
M  V30 10 1 10 11
M  V30 11 1 11 12
M  V30 12 1 12 13
M  V30 13 2 13 14
M  V30 14 1 14 15
M  V30 15 1 15 16
M  V30 16 1 16 17
M  V30 17 1 17 18
M  V30 18 1 17 19
M  V30 19 1 14 20
M  V30 20 2 20 21
M  V30 21 1 20 22
M  V30 22 1 22 23
M  V30 23 2 23 24
M  V30 24 1 24 25
M  V30 25 2 25 26
M  V30 26 1 26 27
M  V30 27 1 27 28
M  V30 28 1 26 29
M  V30 29 2 29 30
M  V30 30 1 22 31
M  V30 31 2 31 32
M  V30 32 1 31 33
M  V30 33 1 33 34
M  V30 34 1 34 35
M  V30 35 2 35 36
M  V30 36 1 36 37
M  V30 37 1 36 38
M  V30 38 2 38 39
M  V30 39 1 39 40
M  V30 40 2 40 41
M  V30 41 1 41 42
M  V30 42 1 10 43
M  V30 43 2 43 44
M  V30 44 1 44 7
M  V30 45 2 15 11
M  V30 46 1 30 23
M  V30 47 1 41 35
M  V30 48 1 33 13
M  V30 49 1 1 45
M  V30 50 1 1 46
M  V30 51 1 1 47
M  V30 52 1 3 48
M  V30 53 1 6 49
M  V30 54 1 8 50
M  V30 55 1 9 51
M  V30 56 1 16 52
M  V30 57 1 16 53
M  V30 58 1 18 54
M  V30 59 1 18 55
M  V30 60 1 18 56
M  V30 61 1 19 57
M  V30 62 1 19 58
M  V30 63 1 19 59
M  V30 64 1 24 60
M  V30 65 1 25 61
M  V30 66 1 28 62
M  V30 67 1 28 63
M  V30 68 1 28 64
M  V30 69 1 34 65
M  V30 70 1 34 66
M  V30 71 1 38 67
M  V30 72 1 39 68
M  V30 73 1 40 69
M  V30 74 1 43 70
M  V30 75 1 44 71
M  V30 END BOND
M  V30 END CTAB
M  END
>  <Dataset>  (839) 
OralDrugs

>  <Ligand_Instance>  (839) 
nan

>  <PDB_ID>  (839) 
nan

>  <Standardized_SMILES>  (839) 
CONC(=O)Nc1ccc(-c2sc3c(c2CN(C)C)c(=O)n(-c2ccc(OC)nn2)c(=O)n3Cc2c(F)cccc2F)cc1

>  <Name>  (839) 
Relugolix

>  <Pocket>  (839) 
nan

>  <ATP_Site>  (839) 
nan

>  <Peripheral>  (839) 
nan

>  <Num_H_Atoms_ProtBoundConf>  (839) 
nan

>  <Num_Resolved_Atoms>  (839) 
nan

>  <Num_Not_Resolved_Atoms>  (839) 
nan

$$$$
CHEMBL1272
     RDKit          3D

  0  0  0  0  0  0  0  0  0  0999 V3000
M  V30 BEGIN CTAB
M  V30 COUNTS 69 71 0 0 0
M  V30 BEGIN ATOM
M  V30 1 C -0.748914 -2.010293 6.289872 0
M  V30 2 C 0.172072 -1.616010 5.151204 0
M  V30 3 O 0.835473 -2.711730 4.601215 0
M  V30 4 C 1.721104 -2.723688 3.562116 0
M  V30 5 C 1.969115 -1.477599 2.992570 0
M  V30 6 C 2.844449 -1.354329 1.931139 0
M  V30 7 C 3.076267 0.021421 1.349802 0
M  V30 8 C 1.862248 0.291306 0.489314 0
M  V30 9 O 1.453293 -0.829751 0.875532 0
M  V30 10 N 1.375383 1.314636 -0.364340 0
M  V30 11 C 0.080977 1.048347 -0.957807 0 CFG=1
M  V30 12 C -0.898071 2.169658 -0.679858 0
M  V30 13 C -1.142668 2.412074 0.782073 0
M  V30 14 C -2.147775 3.565316 0.905126 0
M  V30 15 C -1.669181 1.216120 1.499878 0
M  V30 16 C 0.280133 0.853646 -2.414513 0
M  V30 17 C 1.199495 1.612183 -3.098518 0
M  V30 18 C 1.472671 1.545221 -4.458489 0
M  V30 19 C 0.686965 0.592278 -5.088637 0
M  V30 20 C -0.265876 -0.225970 -4.510325 0
M  V30 21 C -0.435662 -0.057596 -3.153969 0
M  V30 22 N -1.410310 -0.946603 -2.566363 0
M  V30 23 C -1.266300 -2.070589 -1.692324 0
M  V30 24 C -2.289508 -2.133781 -0.602375 0
M  V30 25 C -3.626518 -1.584243 -1.038283 0
M  V30 26 C -3.732801 -1.501409 -2.543583 0
M  V30 27 C -2.706741 -0.499126 -3.013070 0
M  V30 28 C 3.517149 -2.431388 1.375333 0
M  V30 29 C 3.224332 -3.626485 1.986950 0
M  V30 30 C 2.367868 -3.820886 3.042086 0
M  V30 31 C 2.064904 -5.089946 3.671501 0
M  V30 32 O 1.257340 -5.143761 4.631757 0
M  V30 33 O 2.526142 -6.374784 3.406011 0
M  V30 34 H -1.411359 -1.207256 6.597214 0
M  V30 35 H -1.426507 -2.802010 5.844474 0
M  V30 36 H -0.197907 -2.525718 7.095798 0
M  V30 37 H -0.455085 -1.147843 4.370698 0
M  V30 38 H 0.865484 -0.832218 5.534050 0
M  V30 39 H 1.493854 -0.575407 3.349745 0
M  V30 40 H 3.969207 -0.027626 0.723590 0
M  V30 41 H 3.094375 0.803438 2.131811 0
M  V30 42 H 2.121112 2.031666 -0.342137 0
M  V30 43 H -0.326170 0.111621 -0.552341 0
M  V30 44 H -0.478981 3.121678 -1.109285 0
M  V30 45 H -1.873887 2.008694 -1.146737 0
M  V30 46 H -0.239213 2.786169 1.313615 0
M  V30 47 H -2.378058 3.611257 1.999174 0
M  V30 48 H -3.063700 3.370104 0.332805 0
M  V30 49 H -1.653393 4.517416 0.642970 0
M  V30 50 H -0.981712 0.358399 1.344236 0
M  V30 51 H -1.763990 1.463394 2.583717 0
M  V30 52 H -2.653758 0.938149 1.118421 0
M  V30 53 H 1.758258 2.327175 -2.508692 0
M  V30 54 H 2.185926 2.134310 -4.987861 0
M  V30 55 H 0.835796 0.470116 -6.169980 0
M  V30 56 H -0.809667 -0.929971 -5.128580 0
M  V30 57 H -1.381279 -3.017105 -2.303004 0
M  V30 58 H -0.240384 -2.108638 -1.304184 0
M  V30 59 H -1.940183 -1.562209 0.275364 0
M  V30 60 H -2.451339 -3.178392 -0.270979 0
M  V30 61 H -4.480094 -2.191964 -0.670209 0
M  V30 62 H -3.766516 -0.558305 -0.646346 0
M  V30 63 H -3.632186 -2.479725 -3.035996 0
M  V30 64 H -4.724748 -1.068774 -2.781135 0
M  V30 65 H -2.998070 0.492735 -2.608085 0
M  V30 66 H -2.806438 -0.474385 -4.118147 0
M  V30 67 H 4.199220 -2.356137 0.556308 0
M  V30 68 H 3.685208 -4.567787 1.651791 0
M  V30 69 H 1.887967 -7.152869 3.161217 0
M  V30 END ATOM
M  V30 BEGIN BOND
M  V30 1 1 1 2
M  V30 2 1 2 3
M  V30 3 1 3 4
M  V30 4 2 4 5
M  V30 5 1 5 6
M  V30 6 1 6 7
M  V30 7 1 7 8
M  V30 8 2 8 9
M  V30 9 1 8 10
M  V30 10 1 10 11
M  V30 11 1 11 12
M  V30 12 1 12 13
M  V30 13 1 13 14
M  V30 14 1 13 15
M  V30 15 1 11 16
M  V30 16 2 16 17
M  V30 17 1 17 18
M  V30 18 2 18 19
M  V30 19 1 19 20
M  V30 20 2 20 21
M  V30 21 1 21 22
M  V30 22 1 22 23
M  V30 23 1 23 24
M  V30 24 1 24 25
M  V30 25 1 25 26
M  V30 26 1 26 27
M  V30 27 2 6 28
M  V30 28 1 28 29
M  V30 29 2 29 30
M  V30 30 1 30 31
M  V30 31 2 31 32
M  V30 32 1 31 33
M  V30 33 1 30 4
M  V30 34 1 21 16
M  V30 35 1 27 22
M  V30 36 1 1 34
M  V30 37 1 1 35
M  V30 38 1 1 36
M  V30 39 1 2 37
M  V30 40 1 2 38
M  V30 41 1 5 39
M  V30 42 1 7 40
M  V30 43 1 7 41
M  V30 44 1 10 42
M  V30 45 1 11 43 CFG=1
M  V30 46 1 12 44
M  V30 47 1 12 45
M  V30 48 1 13 46
M  V30 49 1 14 47
M  V30 50 1 14 48
M  V30 51 1 14 49
M  V30 52 1 15 50
M  V30 53 1 15 51
M  V30 54 1 15 52
M  V30 55 1 17 53
M  V30 56 1 18 54
M  V30 57 1 19 55
M  V30 58 1 20 56
M  V30 59 1 23 57
M  V30 60 1 23 58
M  V30 61 1 24 59
M  V30 62 1 24 60
M  V30 63 1 25 61
M  V30 64 1 25 62
M  V30 65 1 26 63
M  V30 66 1 26 64
M  V30 67 1 27 65
M  V30 68 1 27 66
M  V30 69 1 28 67
M  V30 70 1 29 68
M  V30 71 1 33 69
M  V30 END BOND
M  V30 END CTAB
M  END
>  <Dataset>  (840) 
OralDrugs

>  <Ligand_Instance>  (840) 
nan

>  <PDB_ID>  (840) 
nan

>  <Standardized_SMILES>  (840) 
CCOc1cc(CC(=O)N[C@@H](CC(C)C)c2ccccc2N2CCCCC2)ccc1C(=O)O

>  <Name>  (840) 
Repaglinide

>  <Pocket>  (840) 
nan

>  <ATP_Site>  (840) 
nan

>  <Peripheral>  (840) 
nan

>  <Num_H_Atoms_ProtBoundConf>  (840) 
nan

>  <Num_Resolved_Atoms>  (840) 
nan

>  <Num_Not_Resolved_Atoms>  (840) 
nan

$$$$
CHEMBL4298138
     RDKit          3D

  0  0  0  0  0  0  0  0  0  0999 V3000
M  V30 BEGIN CTAB
M  V30 COUNTS 44 47 0 0 0
M  V30 BEGIN ATOM
M  V30 1 C -0.806315 -4.127330 0.810150 0
M  V30 2 C -0.629376 -2.674168 0.402686 0 CFG=1
M  V30 3 C -0.998103 -2.493725 -1.074224 0
M  V30 4 N -0.644622 -1.157477 -1.426426 0
M  V30 5 C -0.616066 0.217928 -1.504192 0
M  V30 6 O -1.502594 0.722470 -0.846240 0
M  V30 7 C 0.113967 1.296611 -2.095070 0
M  V30 8 C 0.330687 2.294760 -2.968089 0
M  V30 9 N 1.574299 2.801903 -2.669894 0
M  V30 10 N 2.027700 2.081598 -1.638265 0
M  V30 11 C 3.188079 2.182157 -0.974170 0
M  V30 12 C 3.499162 1.353724 0.083243 0
M  V30 13 C 2.585237 0.407475 0.453788 0
M  V30 14 N 1.440291 0.324722 -0.220910 0
M  V30 15 C 1.182842 1.127240 -1.218863 0
M  V30 16 N 2.394990 -0.617572 1.409369 0
M  V30 17 C 1.621037 -0.739706 2.601904 0 CFG=2
M  V30 18 C 1.617913 -2.213384 3.030394 0
M  V30 19 C 0.259121 -0.241508 2.592798 0
M  V30 20 C 0.015273 0.931507 3.329702 0
M  V30 21 C -1.166688 1.619171 3.519741 0
M  V30 22 F -1.221545 2.744674 4.268055 0
M  V30 23 C -2.290061 1.103570 2.909289 0
M  V30 24 C -2.102160 -0.069142 2.158622 0
M  V30 25 C -0.888746 -0.752588 1.977889 0
M  V30 26 O -1.283199 -1.785990 1.182857 0
M  V30 27 H 0.126853 -4.675827 0.567621 0
M  V30 28 H -1.648576 -4.619167 0.286531 0
M  V30 29 H -0.978920 -4.230896 1.893638 0
M  V30 30 H 0.479782 -2.439751 0.431909 0
M  V30 31 H -0.585824 -3.255084 -1.721244 0
M  V30 32 H -2.113427 -2.649997 -1.077440 0
M  V30 33 H 0.147051 -1.179987 -2.095088 0
M  V30 34 H -0.581553 2.246504 -3.508751 0
M  V30 35 H 3.960129 2.889065 -1.190312 0
M  V30 36 H 4.298581 1.178196 0.774517 0
M  V30 37 H 3.076341 -1.216484 0.896462 0
M  V30 38 H 2.186728 -0.168133 3.430548 0
M  V30 39 H 2.026457 -2.310071 4.071369 0
M  V30 40 H 2.192153 -2.785643 2.302043 0
M  V30 41 H 0.562679 -2.552150 3.038410 0
M  V30 42 H 0.850180 1.410196 3.844388 0
M  V30 43 H -3.196070 1.664449 3.078575 0
M  V30 44 H -3.105805 -0.312958 1.760269 0
M  V30 END ATOM
M  V30 BEGIN BOND
M  V30 1 1 1 2
M  V30 2 1 2 3
M  V30 3 1 3 4
M  V30 4 1 4 5
M  V30 5 2 5 6
M  V30 6 1 5 7
M  V30 7 1 7 8
M  V30 8 2 8 9
M  V30 9 1 9 10
M  V30 10 1 10 11
M  V30 11 2 11 12
M  V30 12 1 12 13
M  V30 13 2 13 14
M  V30 14 1 14 15
M  V30 15 1 13 16
M  V30 16 1 16 17
M  V30 17 1 17 18
M  V30 18 1 17 19
M  V30 19 2 19 20
M  V30 20 1 20 21
M  V30 21 1 21 22
M  V30 22 2 21 23
M  V30 23 1 23 24
M  V30 24 2 24 25
M  V30 25 1 25 26
M  V30 26 1 26 2
M  V30 27 2 15 7
M  V30 28 1 25 19
M  V30 29 1 15 10
M  V30 30 1 1 27
M  V30 31 1 1 28
M  V30 32 1 1 29
M  V30 33 1 2 30 CFG=3
M  V30 34 1 3 31
M  V30 35 1 3 32
M  V30 36 1 4 33
M  V30 37 1 8 34
M  V30 38 1 11 35
M  V30 39 1 12 36
M  V30 40 1 16 37
M  V30 41 1 17 38 CFG=1
M  V30 42 1 18 39
M  V30 43 1 18 40
M  V30 44 1 18 41
M  V30 45 1 20 42
M  V30 46 1 23 43
M  V30 47 1 24 44
M  V30 END BOND
M  V30 END CTAB
M  END
>  <Dataset>  (841) 
OralDrugs

>  <Ligand_Instance>  (841) 
nan

>  <PDB_ID>  (841) 
nan

>  <Standardized_SMILES>  (841) 
C[C@H]1CNC(=O)c2cnn3ccc(nc23)N[C@H](C)c2cc(F)ccc2O1

>  <Name>  (841) 
Repotrectinib

>  <Pocket>  (841) 
nan

>  <ATP_Site>  (841) 
nan

>  <Peripheral>  (841) 
nan

>  <Num_H_Atoms_ProtBoundConf>  (841) 
nan

>  <Num_Resolved_Atoms>  (841) 
nan

>  <Num_Not_Resolved_Atoms>  (841) 
nan

$$$$
CHEMBL1668
     RDKit          3D

  0  0  0  0  0  0  0  0  0  0999 V3000
M  V30 BEGIN CTAB
M  V30 COUNTS 88 93 0 0 0
M  V30 BEGIN ATOM
M  V30 1 C -4.017518 -4.965395 1.054133 0
M  V30 2 O -4.035555 -4.337847 -0.210871 0
M  V30 3 C -2.880035 -3.964545 -0.872976 0
M  V30 4 O -2.086571 -4.384409 0.034068 0
M  V30 5 C -2.571060 -3.314401 -2.164858 0 CFG=1
M  V30 6 C -3.153843 -1.960178 -2.230321 0 CFG=1
M  V30 7 C -4.342937 -1.675675 -1.382973 0
M  V30 8 C -4.038744 -1.164108 -0.014436 0 CFG=2
M  V30 9 C -4.461620 0.238910 0.229559 0
M  V30 10 N -5.077036 1.228673 -0.385390 0
M  V30 11 C -5.163706 2.319977 0.402696 0
M  V30 12 C -5.692979 3.604274 0.271735 0
M  V30 13 C -5.616850 4.531997 1.311788 0
M  V30 14 O -6.193491 5.752656 1.006662 0
M  V30 15 C -6.207300 6.809036 1.946328 0
M  V30 16 C -4.994415 4.154528 2.503697 0
M  V30 17 C -4.469041 2.885345 2.638469 0
M  V30 18 C -4.557894 1.997872 1.606038 0
M  V30 19 C -4.113096 0.678550 1.496661 0
M  V30 20 C -3.397750 -0.195928 2.469903 0
M  V30 21 C -2.402032 -1.043194 1.733457 0
M  V30 22 N -2.675661 -1.273762 0.373553 0
M  V30 23 C -1.666582 -0.912322 -0.551209 0
M  V30 24 C -2.143040 -0.857593 -1.941763 0 CFG=1
M  V30 25 C -1.148272 -0.999635 -3.034286 0
M  V30 26 C -0.345918 -2.269901 -2.871225 0 CFG=1
M  V30 27 O 0.733813 -1.917256 -2.025071 0
M  V30 28 C 2.052481 -1.834635 -2.354348 0
M  V30 29 O 2.414039 -2.092928 -3.530758 0
M  V30 30 C 3.024446 -1.445078 -1.330033 0
M  V30 31 C 4.320363 -1.341286 -1.561549 0
M  V30 32 C 5.343134 -0.966255 -0.617896 0
M  V30 33 C 6.661503 -0.913384 -1.007427 0
M  V30 34 C 7.617378 -0.543506 -0.087485 0
M  V30 35 O 8.972792 -0.447476 -0.339971 0
M  V30 36 C 9.486698 -0.734197 -1.618639 0
M  V30 37 C 7.292956 -0.222345 1.220156 0
M  V30 38 O 8.246549 0.159049 2.182987 0
M  V30 39 C 8.621682 1.517817 2.376318 0
M  V30 40 C 5.963780 -0.274047 1.619193 0
M  V30 41 O 5.633222 0.048132 2.932196 0
M  V30 42 C 4.267739 0.001154 3.358249 0
M  V30 43 C 5.025151 -0.649291 0.672024 0
M  V30 44 C -1.111531 -3.448575 -2.405149 0 CFG=2
M  V30 45 O -0.859966 -4.513488 -3.290979 0
M  V30 46 C -0.117008 -5.524076 -2.727148 0
M  V30 47 H -3.548651 -4.273121 1.774707 0
M  V30 48 H -3.362937 -5.865240 0.925676 0
M  V30 49 H -5.045298 -5.276614 1.316989 0
M  V30 50 H -3.105362 -3.951720 -2.933313 0
M  V30 51 H -3.459319 -1.750126 -3.289239 0
M  V30 52 H -4.992450 -2.567874 -1.366017 0
M  V30 53 H -5.002021 -0.884908 -1.848665 0
M  V30 54 H -4.631074 -1.774251 0.700947 0
M  V30 55 H -5.446013 1.157883 -1.356810 0
M  V30 56 H -6.149065 3.776121 -0.704584 0
M  V30 57 H -5.256659 6.841818 2.544119 0
M  V30 58 H -7.047673 6.716236 2.628694 0
M  V30 59 H -6.254544 7.791219 1.444702 0
M  V30 60 H -4.976176 4.928601 3.258677 0
M  V30 61 H -4.001153 2.650264 3.585861 0
M  V30 62 H -2.836897 0.459837 3.183179 0
M  V30 63 H -4.108904 -0.824371 3.030342 0
M  V30 64 H -2.377969 -2.040873 2.262341 0
M  V30 65 H -1.358590 -0.638505 1.888765 0
M  V30 66 H -1.279151 0.116345 -0.282846 0
M  V30 67 H -0.813831 -1.577373 -0.331885 0
M  V30 68 H -2.669599 0.106487 -2.089685 0
M  V30 69 H -1.722919 -1.102454 -3.983754 0
M  V30 70 H -0.440208 -0.154596 -3.111345 0
M  V30 71 H 0.127870 -2.457847 -3.870548 0
M  V30 72 H 2.687924 -1.227488 -0.325721 0
M  V30 73 H 4.587980 -1.578750 -2.598194 0
M  V30 74 H 6.958801 -1.156594 -2.009099 0
M  V30 75 H 9.689490 -1.826679 -1.704816 0
M  V30 76 H 8.778503 -0.364882 -2.378480 0
M  V30 77 H 10.436397 -0.162947 -1.808218 0
M  V30 78 H 8.997486 1.643342 3.407419 0
M  V30 79 H 9.490409 1.764181 1.712735 0
M  V30 80 H 7.773209 2.205640 2.214581 0
M  V30 81 H 3.727501 0.769642 2.737556 0
M  V30 82 H 4.228910 0.312703 4.404244 0
M  V30 83 H 3.814380 -0.978511 3.156994 0
M  V30 84 H 4.023129 -0.661025 1.071658 0
M  V30 85 H -0.584802 -3.810208 -1.471458 0
M  V30 86 H -0.652966 -5.959690 -1.833424 0
M  V30 87 H -0.135437 -6.366964 -3.472763 0
M  V30 88 H 0.925937 -5.289825 -2.517781 0
M  V30 END ATOM
M  V30 BEGIN BOND
M  V30 1 1 1 2
M  V30 2 1 2 3
M  V30 3 2 3 4
M  V30 4 1 3 5
M  V30 5 1 5 6
M  V30 6 1 6 7
M  V30 7 1 7 8
M  V30 8 1 8 9
M  V30 9 1 9 10
M  V30 10 1 10 11
M  V30 11 2 11 12
M  V30 12 1 12 13
M  V30 13 1 13 14
M  V30 14 1 14 15
M  V30 15 2 13 16
M  V30 16 1 16 17
M  V30 17 2 17 18
M  V30 18 1 18 19
M  V30 19 1 19 20
M  V30 20 1 20 21
M  V30 21 1 21 22
M  V30 22 1 22 23
M  V30 23 1 23 24
M  V30 24 1 24 25
M  V30 25 1 25 26
M  V30 26 1 26 27
M  V30 27 1 27 28
M  V30 28 2 28 29
M  V30 29 1 28 30
M  V30 30 2 30 31
M  V30 31 1 31 32
M  V30 32 2 32 33
M  V30 33 1 33 34
M  V30 34 1 34 35
M  V30 35 1 35 36
M  V30 36 2 34 37
M  V30 37 1 37 38
M  V30 38 1 38 39
M  V30 39 1 37 40
M  V30 40 1 40 41
M  V30 41 1 41 42
M  V30 42 2 40 43
M  V30 43 1 26 44
M  V30 44 1 44 45
M  V30 45 1 45 46
M  V30 46 1 44 5
M  V30 47 1 24 6
M  V30 48 1 43 32
M  V30 49 1 22 8
M  V30 50 2 19 9
M  V30 51 1 18 11
M  V30 52 1 1 47
M  V30 53 1 1 48
M  V30 54 1 1 49
M  V30 55 1 5 50 CFG=3
M  V30 56 1 6 51 CFG=3
M  V30 57 1 7 52
M  V30 58 1 7 53
M  V30 59 1 8 54 CFG=1
M  V30 60 1 10 55
M  V30 61 1 12 56
M  V30 62 1 15 57
M  V30 63 1 15 58
M  V30 64 1 15 59
M  V30 65 1 16 60
M  V30 66 1 17 61
M  V30 67 1 20 62
M  V30 68 1 20 63
M  V30 69 1 21 64
M  V30 70 1 21 65
M  V30 71 1 23 66
M  V30 72 1 23 67
M  V30 73 1 24 68 CFG=3
M  V30 74 1 25 69
M  V30 75 1 25 70
M  V30 76 1 26 71 CFG=3
M  V30 77 1 30 72
M  V30 78 1 31 73
M  V30 79 1 33 74
M  V30 80 1 36 75
M  V30 81 1 36 76
M  V30 82 1 36 77
M  V30 83 1 39 78
M  V30 84 1 39 79
M  V30 85 1 39 80
M  V30 86 1 42 81
M  V30 87 1 42 82
M  V30 88 1 42 83
M  V30 89 1 43 84
M  V30 90 1 44 85 CFG=1
M  V30 91 1 46 86
M  V30 92 1 46 87
M  V30 93 1 46 88
M  V30 END BOND
M  V30 END CTAB
M  END
>  <Dataset>  (842) 
OralDrugs

>  <Ligand_Instance>  (842) 
nan

>  <PDB_ID>  (842) 
nan

>  <Standardized_SMILES>  (842) 
COC(=O)[C@H]1[C@H]2C[C@@H]3c4[nH]c5cc(OC)ccc5c4CCN3C[C@H]2C[C@@H](OC(=O)/C=C/c2cc(OC)c(OC)c(OC)c2)[C@@H]1OC

>  <Name>  (842) 
Rescinnamine

>  <Pocket>  (842) 
nan

>  <ATP_Site>  (842) 
nan

>  <Peripheral>  (842) 
nan

>  <Num_H_Atoms_ProtBoundConf>  (842) 
nan

>  <Num_Resolved_Atoms>  (842) 
nan

>  <Num_Not_Resolved_Atoms>  (842) 
nan

$$$$
CHEMBL986
     RDKit          3D

  0  0  0  0  0  0  0  0  0  0999 V3000
M  V30 BEGIN CTAB
M  V30 COUNTS 51 51 0 0 0
M  V30 BEGIN ATOM
M  V30 1 C -0.127406 -5.019947 1.041060 0
M  V30 2 C -0.910939 -4.398715 2.169950 0
M  V30 3 C -0.979503 -3.052934 2.252670 0
M  V30 4 C -0.258792 -2.358450 1.198635 0
M  V30 5 C -0.108575 -1.070130 0.967557 0
M  V30 6 C 0.634538 -0.427067 -0.119333 0
M  V30 7 C 1.385975 -1.051998 -1.206785 0
M  V30 8 C 0.650508 0.902460 -0.155749 0
M  V30 9 C 1.353284 1.654371 -1.184529 0
M  V30 10 C 1.345208 2.954858 -1.186912 0
M  V30 11 C 2.039146 3.727830 -2.202897 0
M  V30 12 C 2.825711 3.242791 -3.339493 0
M  V30 13 C 1.978138 5.043679 -2.128730 0
M  V30 14 C 2.552140 6.109659 -2.973797 0
M  V30 15 O 3.294260 5.679493 -4.046395 0
M  V30 16 C -1.790323 -2.679262 3.426663 0
M  V30 17 C -2.169504 -1.221988 3.504793 0
M  V30 18 C -1.070288 -2.996038 4.742741 0
M  V30 19 C -3.131329 -3.427357 3.474376 0
M  V30 20 C -2.973006 -4.898577 3.338437 0
M  V30 21 C -1.553405 -5.334239 3.121473 0
M  V30 22 H -0.517898 -4.725638 0.067048 0
M  V30 23 H 0.941689 -4.684892 1.106427 0
M  V30 24 H -0.097940 -6.108121 1.120988 0
M  V30 25 H 0.279536 -2.881645 0.422665 0
M  V30 26 H -0.607712 -0.452034 1.692373 0
M  V30 27 H 1.048984 -0.719953 -2.209013 0
M  V30 28 H 2.502308 -0.937976 -1.083923 0
M  V30 29 H 1.200363 -2.142661 -1.193644 0
M  V30 30 H 0.110334 1.465210 0.623649 0
M  V30 31 H 1.887496 1.114112 -1.953419 0
M  V30 32 H 0.796449 3.439936 -0.395301 0
M  V30 33 H 2.869666 2.133903 -3.401452 0
M  V30 34 H 2.343876 3.583822 -4.292804 0
M  V30 35 H 3.871875 3.572527 -3.285372 0
M  V30 36 H 1.411544 5.519910 -1.310953 0
M  V30 37 H 1.667568 6.670055 -3.399062 0
M  V30 38 H 3.124932 6.856428 -2.385070 0
M  V30 39 H 3.097081 6.180595 -4.853908 0
M  V30 40 H -2.940223 -1.188298 4.348758 0
M  V30 41 H -1.348930 -0.597384 3.905113 0
M  V30 42 H -2.709401 -0.831351 2.646614 0
M  V30 43 H -1.674596 -3.649000 5.405473 0
M  V30 44 H -0.922611 -2.061421 5.361328 0
M  V30 45 H -0.033510 -3.357890 4.573871 0
M  V30 46 H -3.821145 -3.054027 2.684138 0
M  V30 47 H -3.607109 -3.145501 4.431577 0
M  V30 48 H -3.431441 -5.388125 4.246394 0
M  V30 49 H -3.588758 -5.295016 2.488735 0
M  V30 50 H -1.617671 -6.333974 2.614177 0
M  V30 51 H -0.972894 -5.486737 4.055520 0
M  V30 END ATOM
M  V30 BEGIN BOND
M  V30 1 1 1 2
M  V30 2 2 2 3
M  V30 3 1 3 4
M  V30 4 2 4 5
M  V30 5 1 5 6
M  V30 6 1 6 7
M  V30 7 2 6 8
M  V30 8 1 8 9
M  V30 9 2 9 10
M  V30 10 1 10 11
M  V30 11 1 11 12
M  V30 12 2 11 13
M  V30 13 1 13 14
M  V30 14 1 14 15
M  V30 15 1 3 16
M  V30 16 1 16 17
M  V30 17 1 16 18
M  V30 18 1 16 19
M  V30 19 1 19 20
M  V30 20 1 20 21
M  V30 21 1 21 2
M  V30 22 1 1 22
M  V30 23 1 1 23
M  V30 24 1 1 24
M  V30 25 1 4 25
M  V30 26 1 5 26
M  V30 27 1 7 27
M  V30 28 1 7 28
M  V30 29 1 7 29
M  V30 30 1 8 30
M  V30 31 1 9 31
M  V30 32 1 10 32
M  V30 33 1 12 33
M  V30 34 1 12 34
M  V30 35 1 12 35
M  V30 36 1 13 36
M  V30 37 1 14 37
M  V30 38 1 14 38
M  V30 39 1 15 39
M  V30 40 1 17 40
M  V30 41 1 17 41
M  V30 42 1 17 42
M  V30 43 1 18 43
M  V30 44 1 18 44
M  V30 45 1 18 45
M  V30 46 1 19 46
M  V30 47 1 19 47
M  V30 48 1 20 48
M  V30 49 1 20 49
M  V30 50 1 21 50
M  V30 51 1 21 51
M  V30 END BOND
M  V30 END CTAB
M  END
>  <Dataset>  (843) 
OralDrugs

>  <Ligand_Instance>  (843) 
nan

>  <PDB_ID>  (843) 
nan

>  <Standardized_SMILES>  (843) 
CC1=C(/C=C/C(C)=C/C=C/C(C)=C/CO)C(C)(C)CCC1

>  <Name>  (843) 
Retinol

>  <Pocket>  (843) 
nan

>  <ATP_Site>  (843) 
nan

>  <Peripheral>  (843) 
nan

>  <Num_H_Atoms_ProtBoundConf>  (843) 
nan

>  <Num_Resolved_Atoms>  (843) 
nan

>  <Num_Not_Resolved_Atoms>  (843) 
nan

$$$$
CHEMBL3545110
     RDKit          3D

  0  0  0  0  0  0  0  0  0  0999 V3000
M  V30 BEGIN CTAB
M  V30 COUNTS 62 66 0 0 0
M  V30 BEGIN ATOM
M  V30 1 C 2.631461 -1.214534 5.261681 0
M  V30 2 N 3.230634 -2.401765 4.710869 0
M  V30 3 C 3.450480 -3.518926 5.613038 0
M  V30 4 C 3.641131 -2.632037 3.342711 0
M  V30 5 O 4.178903 -3.723332 2.956942 0
M  V30 6 C 3.508995 -1.691713 2.239049 0
M  V30 7 C 4.093225 -0.463918 2.012166 0
M  V30 8 C 3.585820 -0.047897 0.809415 0
M  V30 9 C 3.730882 1.054216 0.001044 0
M  V30 10 N 3.104157 1.231740 -1.165293 0
M  V30 11 C 2.242177 0.270900 -1.633422 0
M  V30 12 N 1.399129 0.098946 -2.786531 0
M  V30 13 C 0.093609 0.539957 -2.528050 0
M  V30 14 C -0.317561 1.125644 -1.357131 0
M  V30 15 C -1.605703 1.541437 -1.043536 0
M  V30 16 C -2.554863 1.334853 -2.023548 0
M  V30 17 N -3.901269 1.719532 -1.807736 0
M  V30 18 C -5.020317 1.142183 -2.566581 0
M  V30 19 C -6.065579 0.730149 -1.550241 0
M  V30 20 N -6.608962 1.928151 -0.965238 0
M  V30 21 C -5.727619 3.077259 -1.090204 0
M  V30 22 C -4.268645 2.718546 -0.826834 0
M  V30 23 C -2.132907 0.746968 -3.196257 0
M  V30 24 N -0.860647 0.340940 -3.494956 0
M  V30 25 N 2.068790 -0.822347 -0.879526 0
M  V30 26 C 2.705420 -0.986681 0.290001 0
M  V30 27 N 2.682382 -2.002880 1.213211 0
M  V30 28 C 1.850892 -3.181905 1.024003 0
M  V30 29 C 0.908652 -3.024888 -0.130440 0
M  V30 30 C -0.008123 -4.237247 0.112872 0
M  V30 31 C -0.180761 -4.233449 1.638857 0
M  V30 32 C 0.957362 -3.417908 2.196048 0
M  V30 33 H 2.334501 -0.468229 4.520113 0
M  V30 34 H 1.724773 -1.523677 5.819977 0
M  V30 35 H 3.317887 -0.774709 6.041983 0
M  V30 36 H 3.827979 -4.430420 5.100096 0
M  V30 37 H 4.232292 -3.205059 6.332392 0
M  V30 38 H 2.467494 -3.746883 6.128695 0
M  V30 39 H 4.782590 0.044468 2.633700 0
M  V30 40 H 4.379107 1.833318 0.297328 0
M  V30 41 H 1.680447 -0.290728 -3.696265 0
M  V30 42 H 0.408435 1.305472 -0.565532 0
M  V30 43 H -1.837930 1.995543 -0.096213 0
M  V30 44 H -5.351320 1.879149 -3.295986 0
M  V30 45 H -4.658408 0.232813 -3.119635 0
M  V30 46 H -6.818399 0.082920 -1.994578 0
M  V30 47 H -5.519813 0.166602 -0.762220 0
M  V30 48 H -7.510080 2.155981 -1.421603 0
M  V30 49 H -6.067795 3.837678 -0.355150 0
M  V30 50 H -5.753478 3.521245 -2.128402 0
M  V30 51 H -3.684266 3.640329 -1.090351 0
M  V30 52 H -4.073922 2.391282 0.197948 0
M  V30 53 H -2.871549 0.577445 -3.994899 0
M  V30 54 H 2.465758 -4.084541 0.852072 0
M  V30 55 H 0.312542 -2.100428 0.047465 0
M  V30 56 H 1.373050 -3.086725 -1.122132 0
M  V30 57 H -0.951437 -4.134488 -0.424472 0
M  V30 58 H 0.574637 -5.143370 -0.126368 0
M  V30 59 H -0.203414 -5.261025 2.057401 0
M  V30 60 H -1.179220 -3.796234 1.886091 0
M  V30 61 H 1.450548 -3.996704 3.006430 0
M  V30 62 H 0.536659 -2.443261 2.579439 0
M  V30 END ATOM
M  V30 BEGIN BOND
M  V30 1 1 1 2
M  V30 2 1 2 3
M  V30 3 1 2 4
M  V30 4 2 4 5
M  V30 5 1 4 6
M  V30 6 2 6 7
M  V30 7 1 7 8
M  V30 8 2 8 9
M  V30 9 1 9 10
M  V30 10 2 10 11
M  V30 11 1 11 12
M  V30 12 1 12 13
M  V30 13 2 13 14
M  V30 14 1 14 15
M  V30 15 2 15 16
M  V30 16 1 16 17
M  V30 17 1 17 18
M  V30 18 1 18 19
M  V30 19 1 19 20
M  V30 20 1 20 21
M  V30 21 1 21 22
M  V30 22 1 16 23
M  V30 23 2 23 24
M  V30 24 1 11 25
M  V30 25 2 25 26
M  V30 26 1 26 27
M  V30 27 1 27 28
M  V30 28 1 28 29
M  V30 29 1 29 30
M  V30 30 1 30 31
M  V30 31 1 31 32
M  V30 32 1 27 6
M  V30 33 1 32 28
M  V30 34 1 26 8
M  V30 35 1 24 13
M  V30 36 1 22 17
M  V30 37 1 1 33
M  V30 38 1 1 34
M  V30 39 1 1 35
M  V30 40 1 3 36
M  V30 41 1 3 37
M  V30 42 1 3 38
M  V30 43 1 7 39
M  V30 44 1 9 40
M  V30 45 1 12 41
M  V30 46 1 14 42
M  V30 47 1 15 43
M  V30 48 1 18 44
M  V30 49 1 18 45
M  V30 50 1 19 46
M  V30 51 1 19 47
M  V30 52 1 20 48
M  V30 53 1 21 49
M  V30 54 1 21 50
M  V30 55 1 22 51
M  V30 56 1 22 52
M  V30 57 1 23 53
M  V30 58 1 28 54
M  V30 59 1 29 55
M  V30 60 1 29 56
M  V30 61 1 30 57
M  V30 62 1 30 58
M  V30 63 1 31 59
M  V30 64 1 31 60
M  V30 65 1 32 61
M  V30 66 1 32 62
M  V30 END BOND
M  V30 END CTAB
M  END
>  <Dataset>  (844) 
OralDrugs

>  <Ligand_Instance>  (844) 
nan

>  <PDB_ID>  (844) 
nan

>  <Standardized_SMILES>  (844) 
CN(C)C(=O)c1cc2cnc(Nc3ccc(N4CCNCC4)cn3)nc2n1C1CCCC1

>  <Name>  (844) 
Ribociclib

>  <Pocket>  (844) 
nan

>  <ATP_Site>  (844) 
nan

>  <Peripheral>  (844) 
nan

>  <Num_H_Atoms_ProtBoundConf>  (844) 
nan

>  <Num_Resolved_Atoms>  (844) 
nan

>  <Num_Not_Resolved_Atoms>  (844) 
nan

$$$$
CHEMBL444633
     RDKit          3D

  0  0  0  0  0  0  0  0  0  0999 V3000
M  V30 BEGIN CTAB
M  V30 COUNTS 123 128 0 0 0
M  V30 BEGIN ATOM
M  V30 1 C -5.664268 2.717295 2.109937 0
M  V30 2 O -4.439918 2.216824 2.460429 0
M  V30 3 C -4.279434 0.847623 2.217641 0 CFG=1
M  V30 4 C -3.428273 0.532602 1.082780 0
M  V30 5 C -3.618220 -0.018534 -0.143866 0
M  V30 6 O -2.379944 -0.056970 -0.795785 0
M  V30 7 C -2.285011 0.325165 -2.175599 0 CFG=1
M  V30 8 C -3.028162 -0.534951 -3.109810 0
M  V30 9 O -2.688886 1.722326 -2.200226 0
M  V30 10 C -1.797542 2.331344 -1.287083 0
M  V30 11 C -1.695377 3.324776 -0.340550 0
M  V30 12 C -2.886907 4.148787 -0.123468 0
M  V30 13 C -0.508586 3.518542 0.330754 0
M  V30 14 O -0.477663 4.535776 1.276270 0
M  V30 15 C 0.629366 2.801420 0.148235 0
M  V30 16 C 0.567024 1.820328 -0.779925 0
M  V30 17 C -0.634122 1.593562 -1.482749 0
M  V30 18 C -0.838612 0.550394 -2.513252 0
M  V30 19 O -0.368115 -0.149241 -3.450530 0
M  V30 20 C 1.602813 0.864125 -1.311345 0
M  V30 21 N 1.898151 -0.083214 -2.058247 0
M  V30 22 C 3.248588 -0.508541 -2.025122 0
M  V30 23 C 3.494867 -1.946679 -1.723227 0
M  V30 24 C 3.761606 -2.672527 -3.063456 0
M  V30 25 N 4.959382 -2.244436 -3.667418 0
M  V30 26 C 5.151639 -2.461744 -5.049408 0
M  V30 27 C 5.345636 -3.847516 -5.560713 0
M  V30 28 C 4.192609 -4.766146 -5.313642 0
M  V30 29 C 5.633642 -3.836750 -7.069652 0
M  V30 30 C 5.243623 -0.825481 -3.419149 0
M  V30 31 C 3.919450 -0.111432 -3.344231 0
M  V30 32 N 3.838167 0.345632 -0.970512 0
M  V30 33 C 2.829758 1.226569 -0.534326 0
M  V30 34 C 2.993029 2.155791 0.425837 0
M  V30 35 N 4.299238 2.164368 1.070962 0
M  V30 36 C 4.394651 1.617047 2.458020 0
M  V30 37 O 3.588391 1.791837 1.605863 0
M  V30 38 C 5.598036 1.538229 3.295091 0
M  V30 39 C 6.624285 2.098750 2.420101 0
M  V30 40 C 4.863623 1.019244 4.221207 0
M  V30 41 C 3.731229 0.502413 4.926725 0
M  V30 42 C 2.547969 0.470866 4.348753 0
M  V30 43 C 1.350191 -0.090840 5.104503 0 CFG=2
M  V30 44 C 1.900616 -0.452283 6.480014 0
M  V30 45 C 0.803901 -1.258899 4.339772 0 CFG=2
M  V30 46 O 0.422546 -0.761103 3.089514 0
M  V30 47 C -0.331230 -2.015885 4.867741 0 CFG=1
M  V30 48 C -0.161649 -2.648449 6.235493 0
M  V30 49 C -1.723186 -1.513906 4.652289 0 CFG=1
M  V30 50 O -1.772865 -0.173907 5.051855 0
M  V30 51 C -2.353800 -1.667560 3.314508 0 CFG=1
M  V30 52 C -2.341713 -3.132689 2.844047 0
M  V30 53 C -3.858781 -1.335600 3.400135 0 CFG=2
M  V30 54 O -4.310427 -1.716209 2.061618 0
M  V30 55 C -5.213480 -2.745882 1.858073 0
M  V30 56 C -5.502170 -2.936746 0.431496 0
M  V30 57 O -5.797635 -3.508896 2.646925 0
M  V30 58 C -4.220603 0.093630 3.484842 0 CFG=2
M  V30 59 C -5.650341 0.097003 4.117582 0
M  V30 60 C 1.883517 3.006178 0.811795 0
M  V30 61 O 1.954432 3.884120 1.666726 0
M  V30 62 H -6.455900 2.208570 2.677581 0
M  V30 63 H -5.735660 3.802556 2.403463 0
M  V30 64 H -5.841974 2.616940 1.004109 0
M  V30 65 H -5.368032 0.592819 1.802678 0
M  V30 66 H -2.498600 0.917301 1.533549 0
M  V30 67 H -4.674898 -0.217836 -0.143121 0
M  V30 68 H -3.222412 -1.543217 -2.651696 0
M  V30 69 H -4.068454 -0.115307 -3.250393 0
M  V30 70 H -2.528179 -0.690453 -4.073143 0
M  V30 71 H -2.608023 5.226787 -0.287602 0
M  V30 72 H -3.282622 4.089019 0.899950 0
M  V30 73 H -3.652609 3.947083 -0.903576 0
M  V30 74 H -1.354570 4.944593 1.597735 0
M  V30 75 H 2.590190 -2.457231 -1.300157 0
M  V30 76 H 4.382280 -2.085862 -1.116790 0
M  V30 77 H 3.818234 -3.770381 -2.843970 0
M  V30 78 H 2.887883 -2.542167 -3.727248 0
M  V30 79 H 6.036714 -1.866869 -5.450687 0
M  V30 80 H 4.303491 -2.028336 -5.666996 0
M  V30 81 H 6.291066 -4.316647 -5.134601 0
M  V30 82 H 4.154372 -5.494711 -6.176580 0
M  V30 83 H 3.243905 -4.235512 -5.322905 0
M  V30 84 H 4.402302 -5.356295 -4.399593 0
M  V30 85 H 6.663787 -3.464857 -7.287815 0
M  V30 86 H 5.602359 -4.890246 -7.412888 0
M  V30 87 H 4.855852 -3.284682 -7.630968 0
M  V30 88 H 5.810817 -0.394595 -4.277722 0
M  V30 89 H 5.842044 -0.686078 -2.517538 0
M  V30 90 H 3.305887 -0.410549 -4.195602 0
M  V30 91 H 4.063947 0.999876 -3.352872 0
M  V30 92 H 4.836175 0.122328 -0.778873 0
M  V30 93 H 5.028259 2.560385 0.368403 0
M  V30 94 H 7.637100 1.768705 2.728613 0
M  V30 95 H 6.523964 1.628509 1.392125 0
M  V30 96 H 6.535074 3.166710 2.243062 0
M  V30 97 H 5.930643 1.139840 4.490262 0
M  V30 98 H 4.332796 0.361562 5.776486 0
M  V30 99 H 2.073439 0.731694 3.427720 0
M  V30 100 H 0.666258 0.753157 5.266945 0
M  V30 101 H 2.536535 -1.356139 6.424242 0
M  V30 102 H 2.625007 0.349934 6.821277 0
M  V30 103 H 1.140645 -0.449181 7.273745 0
M  V30 104 H 1.664394 -1.975138 4.223440 0
M  V30 105 H 0.603847 -1.407277 2.387998 0
M  V30 106 H -0.318777 -2.979353 4.203474 0
M  V30 107 H -0.833540 -3.567800 6.313972 0
M  V30 108 H -0.558526 -1.984701 7.017520 0
M  V30 109 H 0.827919 -3.003575 6.475554 0
M  V30 110 H -2.375104 -2.121575 5.393393 0
M  V30 111 H -1.386561 0.404603 4.342421 0
M  V30 112 H -1.929679 -1.070440 2.514913 0
M  V30 113 H -2.963345 -3.785155 3.454785 0
M  V30 114 H -2.816183 -3.102809 1.818582 0
M  V30 115 H -1.327499 -3.503437 2.632882 0
M  V30 116 H -4.388411 -2.031868 4.060687 0
M  V30 117 H -4.622455 -2.762884 -0.209113 0
M  V30 118 H -5.862304 -3.949111 0.190794 0
M  V30 119 H -6.302104 -2.217280 0.075995 0
M  V30 120 H -3.655733 0.691526 4.240699 0
M  V30 121 H -5.652648 -0.743912 4.867893 0
M  V30 122 H -6.341827 -0.098746 3.283913 0
M  V30 123 H -5.823624 1.033519 4.634939 0
M  V30 END ATOM
M  V30 BEGIN BOND
M  V30 1 1 1 2
M  V30 2 1 2 3
M  V30 3 1 3 4
M  V30 4 2 4 5
M  V30 5 1 5 6
M  V30 6 1 6 7
M  V30 7 1 7 8 CFG=3
M  V30 8 1 7 9
M  V30 9 1 9 10
M  V30 10 2 10 11
M  V30 11 1 11 12
M  V30 12 1 11 13
M  V30 13 1 13 14
M  V30 14 2 13 15
M  V30 15 1 15 16
M  V30 16 2 16 17
M  V30 17 1 17 18
M  V30 18 2 18 19
M  V30 19 1 16 20
M  V30 20 2 20 21
M  V30 21 1 21 22
M  V30 22 1 22 23
M  V30 23 1 23 24
M  V30 24 1 24 25
M  V30 25 1 25 26
M  V30 26 1 26 27
M  V30 27 1 27 28
M  V30 28 1 27 29
M  V30 29 1 25 30
M  V30 30 1 30 31
M  V30 31 1 22 32
M  V30 32 1 32 33
M  V30 33 2 33 34
M  V30 34 1 34 35
M  V30 35 1 35 36
M  V30 36 2 36 37
M  V30 37 1 36 38
M  V30 38 1 38 39
M  V30 39 2 38 40
M  V30 40 1 40 41
M  V30 41 2 41 42
M  V30 42 1 42 43
M  V30 43 1 43 44
M  V30 44 1 43 45
M  V30 45 1 45 46
M  V30 46 1 45 47
M  V30 47 1 47 48
M  V30 48 1 47 49
M  V30 49 1 49 50
M  V30 50 1 49 51
M  V30 51 1 51 52
M  V30 52 1 51 53
M  V30 53 1 53 54
M  V30 54 1 54 55
M  V30 55 1 55 56
M  V30 56 2 55 57
M  V30 57 1 53 58
M  V30 58 1 58 59
M  V30 59 1 34 60
M  V30 60 2 60 61
M  V30 61 1 58 3
M  V30 62 1 18 7
M  V30 63 1 33 20
M  V30 64 1 17 10
M  V30 65 1 31 22
M  V30 66 1 60 15
M  V30 67 1 1 62
M  V30 68 1 1 63
M  V30 69 1 1 64
M  V30 70 1 3 65 CFG=3
M  V30 71 1 4 66
M  V30 72 1 5 67
M  V30 73 1 8 68
M  V30 74 1 8 69
M  V30 75 1 8 70
M  V30 76 1 12 71
M  V30 77 1 12 72
M  V30 78 1 12 73
M  V30 79 1 14 74
M  V30 80 1 23 75
M  V30 81 1 23 76
M  V30 82 1 24 77
M  V30 83 1 24 78
M  V30 84 1 26 79
M  V30 85 1 26 80
M  V30 86 1 27 81
M  V30 87 1 28 82
M  V30 88 1 28 83
M  V30 89 1 28 84
M  V30 90 1 29 85
M  V30 91 1 29 86
M  V30 92 1 29 87
M  V30 93 1 30 88
M  V30 94 1 30 89
M  V30 95 1 31 90
M  V30 96 1 31 91
M  V30 97 1 32 92
M  V30 98 1 35 93
M  V30 99 1 39 94
M  V30 100 1 39 95
M  V30 101 1 39 96
M  V30 102 1 40 97
M  V30 103 1 41 98
M  V30 104 1 42 99
M  V30 105 1 43 100 CFG=1
M  V30 106 1 44 101
M  V30 107 1 44 102
M  V30 108 1 44 103
M  V30 109 1 45 104 CFG=3
M  V30 110 1 46 105
M  V30 111 1 47 106 CFG=3
M  V30 112 1 48 107
M  V30 113 1 48 108
M  V30 114 1 48 109
M  V30 115 1 49 110 CFG=1
M  V30 116 1 50 111
M  V30 117 1 51 112 CFG=3
M  V30 118 1 52 113
M  V30 119 1 52 114
M  V30 120 1 52 115
M  V30 121 1 53 116 CFG=1
M  V30 122 1 56 117
M  V30 123 1 56 118
M  V30 124 1 56 119
M  V30 125 1 58 120 CFG=1
M  V30 126 1 59 121
M  V30 127 1 59 122
M  V30 128 1 59 123
M  V30 END BOND
M  V30 END CTAB
M  END
>  <Dataset>  (845) 
OralDrugs

>  <Ligand_Instance>  (845) 
nan

>  <PDB_ID>  (845) 
nan

>  <Standardized_SMILES>  (845) 
CO[C@H]1/C=C/O[C@@]2(C)Oc3c(C)c(O)c4c(c3C2=O)C2=NC3(CCN(CC(C)C)CC3)NC2=C(NC(=O)/C(C)=C\C=C\[C@H](C)[C@H](O)[C@@H](C)[C@@H](O)[C@@H](C)[C@H](OC(C)=O)[C@@H]1C)C4=O

>  <Name>  (845) 
Rifabutin

>  <Pocket>  (845) 
nan

>  <ATP_Site>  (845) 
nan

>  <Peripheral>  (845) 
nan

>  <Num_H_Atoms_ProtBoundConf>  (845) 
nan

>  <Num_Resolved_Atoms>  (845) 
nan

>  <Num_Not_Resolved_Atoms>  (845) 
nan

$$$$
CHEMBL374478
     RDKit          3D

  0  0  0  0  0  0  0  0  0  0999 V3000
M  V30 BEGIN CTAB
M  V30 COUNTS 117 121 0 0 0
M  V30 BEGIN ATOM
M  V30 1 C 3.424602 -1.690039 -5.610674 0
M  V30 2 O 2.880263 -1.101975 -4.473360 0
M  V30 3 C 1.498496 -0.888083 -4.574811 0 CFG=1
M  V30 4 C 0.805002 -1.686076 -3.544571 0
M  V30 5 C 1.236120 -2.972599 -3.483818 0
M  V30 6 O 0.591149 -3.696899 -2.533730 0
M  V30 7 C 0.707165 -5.024411 -2.174386 0 CFG=1
M  V30 8 C 0.234346 -6.047152 -3.142487 0
M  V30 9 O 2.087876 -5.290357 -1.749753 0
M  V30 10 C 2.295952 -4.340657 -0.727215 0
M  V30 11 C 3.331918 -3.570359 -0.273723 0
M  V30 12 C 4.638214 -3.671931 -0.935477 0
M  V30 13 C 3.112616 -2.716641 0.798362 0
M  V30 14 O 4.144928 -1.921211 1.283719 0
M  V30 15 C 1.838680 -2.721835 1.321330 0
M  V30 16 C 1.667579 -1.797391 2.319653 0
M  V30 17 O 2.630510 -0.971553 2.844940 0
M  V30 18 C 0.390697 -1.712990 2.824791 0
M  V30 19 C -0.717504 -2.454175 2.447372 0
M  V30 20 C -2.056998 -2.350103 3.009133 0
M  V30 21 N -2.732564 -2.877091 3.954314 0
M  V30 22 N -4.039127 -2.608771 4.309550 0
M  V30 23 C -4.816098 -3.733491 4.855725 0
M  V30 24 C -5.735174 -4.170293 3.737772 0
M  V30 25 N -6.457177 -3.047770 3.254017 0
M  V30 26 C -6.348358 -2.938517 1.831927 0
M  V30 27 C -6.331645 -1.827655 3.970245 0
M  V30 28 C -4.917825 -1.436148 4.285953 0
M  V30 29 C -0.469005 -3.363220 1.438836 0
M  V30 30 O -1.527543 -4.145952 1.000822 0
M  V30 31 C 0.785915 -3.483462 0.890942 0
M  V30 32 C 1.010854 -4.329216 -0.168030 0
M  V30 33 C 0.050398 -5.241675 -0.815743 0
M  V30 34 O -0.927117 -5.993061 -0.682293 0
M  V30 35 N 0.021487 -0.680773 3.693510 0
M  V30 36 C -0.351540 0.360741 4.571825 0
M  V30 37 O -0.461188 -0.627088 5.307297 0
M  V30 38 C -0.511602 1.794317 4.601158 0
M  V30 39 C -1.050105 2.180895 5.894622 0
M  V30 40 C -0.210238 2.585358 3.619798 0
M  V30 41 C 0.350172 2.212218 2.335430 0
M  V30 42 C 0.559160 3.159098 1.460381 0
M  V30 43 C 1.125959 3.116191 0.075357 0 CFG=2
M  V30 44 C 2.397057 3.897713 0.156686 0
M  V30 45 C 0.108439 3.489433 -0.881319 0 CFG=2
M  V30 46 O -0.877367 2.463296 -0.920595 0
M  V30 47 C 0.231116 4.235853 -2.101691 0 CFG=1
M  V30 48 C 0.472995 5.759608 -1.693696 0
M  V30 49 C 1.165074 3.993624 -3.203189 0 CFG=1
M  V30 50 O 2.518623 4.154658 -2.844174 0
M  V30 51 C 1.094602 2.857961 -4.119351 0 CFG=1
M  V30 52 C 2.042619 3.100628 -5.302347 0
M  V30 53 C 1.391331 1.461878 -3.556666 0 CFG=2
M  V30 54 O 2.536556 1.280257 -2.940308 0
M  V30 55 C 3.481025 1.043357 -2.126575 0
M  V30 56 C 4.772536 0.850326 -1.489403 0
M  V30 57 O 2.506561 1.248466 -2.827678 0
M  V30 58 C 1.094919 0.517479 -4.718276 0 CFG=2
M  V30 59 C -0.421166 0.545067 -4.926643 0
M  V30 60 H 3.009203 -2.660598 -5.862987 0
M  V30 61 H 3.300810 -1.012402 -6.509604 0
M  V30 62 H 4.526991 -1.746801 -5.411065 0
M  V30 63 H 1.275855 -1.351315 -5.616219 0
M  V30 64 H 0.037936 -1.266481 -2.919398 0
M  V30 65 H 1.954247 -3.580406 -3.985343 0
M  V30 66 H -0.158985 -6.962775 -2.638463 0
M  V30 67 H -0.583396 -5.676930 -3.792424 0
M  V30 68 H 1.054046 -6.397077 -3.819063 0
M  V30 69 H 4.765003 -2.802912 -1.622585 0
M  V30 70 H 5.482616 -3.601930 -0.217820 0
M  V30 71 H 4.677897 -4.584059 -1.560980 0
M  V30 72 H 4.915002 -2.280665 1.823118 0
M  V30 73 H 3.381460 -1.246516 3.441712 0
M  V30 74 H -2.668375 -1.624647 2.490107 0
M  V30 75 H -4.161859 -4.589234 5.140054 0
M  V30 76 H -5.377776 -3.437797 5.770190 0
M  V30 77 H -5.068600 -4.558729 2.916876 0
M  V30 78 H -6.426546 -4.952507 4.112344 0
M  V30 79 H -5.887059 -3.852543 1.408574 0
M  V30 80 H -7.367310 -2.813651 1.408684 0
M  V30 81 H -5.756962 -2.029132 1.600438 0
M  V30 82 H -6.994231 -1.821781 4.888456 0
M  V30 83 H -6.770347 -1.029928 3.332906 0
M  V30 84 H -4.929187 -1.046751 5.337709 0
M  V30 85 H -4.582769 -0.681240 3.582762 0
M  V30 86 H -2.210973 -4.477983 1.693121 0
M  V30 87 H 0.054770 -0.057063 2.895628 0
M  V30 88 H -2.152104 2.319085 5.768223 0
M  V30 89 H -0.762620 1.577633 6.757015 0
M  V30 90 H -0.689453 3.224317 6.148617 0
M  V30 91 H -0.408283 3.612144 3.812623 0
M  V30 92 H 0.728439 1.419253 1.684598 0
M  V30 93 H 0.332337 4.224501 1.608350 0
M  V30 94 H 1.364171 1.993713 -0.027037 0
M  V30 95 H 2.389476 4.910061 -0.204684 0
M  V30 96 H 3.199565 3.315936 -0.366304 0
M  V30 97 H 2.791460 3.955730 1.217044 0
M  V30 98 H -0.555223 4.262136 -0.216304 0
M  V30 99 H -1.749456 2.844272 -1.194085 0
M  V30 100 H -0.787923 4.288281 -2.555011 0
M  V30 101 H 0.261131 5.888219 -0.634867 0
M  V30 102 H -0.239466 6.397737 -2.253456 0
M  V30 103 H 1.466344 6.071110 -2.048792 0
M  V30 104 H 1.040513 4.948053 -3.877861 0
M  V30 105 H 3.068232 4.533287 -3.573155 0
M  V30 106 H 0.079428 2.776447 -4.544736 0
M  V30 107 H 2.180091 4.202507 -5.356793 0
M  V30 108 H 3.004640 2.671333 -5.052708 0
M  V30 109 H 1.588788 2.816352 -6.255860 0
M  V30 110 H 0.510399 1.267969 -2.866929 0
M  V30 111 H 4.928638 1.516725 -0.605163 0
M  V30 112 H 5.553799 1.182109 -2.234873 0
M  V30 113 H 4.925322 -0.196469 -1.153180 0
M  V30 114 H 1.549768 0.898931 -5.663538 0
M  V30 115 H -0.739267 1.291637 -5.663632 0
M  V30 116 H -0.881605 0.811134 -3.955095 0
M  V30 117 H -0.805062 -0.473307 -5.159182 0
M  V30 END ATOM
M  V30 BEGIN BOND
M  V30 1 1 1 2
M  V30 2 1 2 3
M  V30 3 1 3 4
M  V30 4 2 4 5
M  V30 5 1 5 6
M  V30 6 1 6 7
M  V30 7 1 7 8 CFG=3
M  V30 8 1 7 9
M  V30 9 1 9 10
M  V30 10 2 10 11
M  V30 11 1 11 12
M  V30 12 1 11 13
M  V30 13 1 13 14
M  V30 14 2 13 15
M  V30 15 1 15 16
M  V30 16 1 16 17
M  V30 17 2 16 18
M  V30 18 1 18 19
M  V30 19 1 19 20
M  V30 20 2 20 21
M  V30 21 1 21 22
M  V30 22 1 22 23
M  V30 23 1 23 24
M  V30 24 1 24 25
M  V30 25 1 25 26
M  V30 26 1 25 27
M  V30 27 1 27 28
M  V30 28 2 19 29
M  V30 29 1 29 30
M  V30 30 1 29 31
M  V30 31 2 31 32
M  V30 32 1 32 33
M  V30 33 2 33 34
M  V30 34 1 18 35
M  V30 35 1 35 36
M  V30 36 2 36 37
M  V30 37 1 36 38
M  V30 38 1 38 39
M  V30 39 2 38 40
M  V30 40 1 40 41
M  V30 41 2 41 42
M  V30 42 1 42 43
M  V30 43 1 43 44
M  V30 44 1 43 45
M  V30 45 1 45 46
M  V30 46 1 45 47
M  V30 47 1 47 48
M  V30 48 1 47 49
M  V30 49 1 49 50
M  V30 50 1 49 51
M  V30 51 1 51 52
M  V30 52 1 51 53
M  V30 53 1 53 54
M  V30 54 1 54 55
M  V30 55 1 55 56
M  V30 56 2 55 57
M  V30 57 1 53 58
M  V30 58 1 58 59
M  V30 59 1 58 3
M  V30 60 1 33 7
M  V30 61 1 32 10
M  V30 62 1 31 15
M  V30 63 1 28 22
M  V30 64 1 1 60
M  V30 65 1 1 61
M  V30 66 1 1 62
M  V30 67 1 3 63 CFG=3
M  V30 68 1 4 64
M  V30 69 1 5 65
M  V30 70 1 8 66
M  V30 71 1 8 67
M  V30 72 1 8 68
M  V30 73 1 12 69
M  V30 74 1 12 70
M  V30 75 1 12 71
M  V30 76 1 14 72
M  V30 77 1 17 73
M  V30 78 1 20 74
M  V30 79 1 23 75
M  V30 80 1 23 76
M  V30 81 1 24 77
M  V30 82 1 24 78
M  V30 83 1 26 79
M  V30 84 1 26 80
M  V30 85 1 26 81
M  V30 86 1 27 82
M  V30 87 1 27 83
M  V30 88 1 28 84
M  V30 89 1 28 85
M  V30 90 1 30 86
M  V30 91 1 35 87
M  V30 92 1 39 88
M  V30 93 1 39 89
M  V30 94 1 39 90
M  V30 95 1 40 91
M  V30 96 1 41 92
M  V30 97 1 42 93
M  V30 98 1 43 94 CFG=3
M  V30 99 1 44 95
M  V30 100 1 44 96
M  V30 101 1 44 97
M  V30 102 1 45 98 CFG=1
M  V30 103 1 46 99
M  V30 104 1 47 100 CFG=3
M  V30 105 1 48 101
M  V30 106 1 48 102
M  V30 107 1 48 103
M  V30 108 1 49 104 CFG=3
M  V30 109 1 50 105
M  V30 110 1 51 106 CFG=3
M  V30 111 1 52 107
M  V30 112 1 52 108
M  V30 113 1 52 109
M  V30 114 1 53 110 CFG=1
M  V30 115 1 56 111
M  V30 116 1 56 112
M  V30 117 1 56 113
M  V30 118 1 58 114 CFG=3
M  V30 119 1 59 115
M  V30 120 1 59 116
M  V30 121 1 59 117
M  V30 END BOND
M  V30 END CTAB
M  END
>  <Dataset>  (846) 
OralDrugs

>  <Ligand_Instance>  (846) 
nan

>  <PDB_ID>  (846) 
nan

>  <Standardized_SMILES>  (846) 
CO[C@H]1/C=C/O[C@@]2(C)Oc3c(C)c(O)c4c(O)c(c(/C=N/N5CCN(C)CC5)c(O)c4c3C2=O)NC(=O)/C(C)=C\C=C\[C@H](C)[C@H](O)[C@@H](C)[C@@H](O)[C@@H](C)[C@H](OC(C)=O)[C@@H]1C

>  <Name>  (846) 
Rifampin

>  <Pocket>  (846) 
nan

>  <ATP_Site>  (846) 
nan

>  <Peripheral>  (846) 
nan

>  <Num_H_Atoms_ProtBoundConf>  (846) 
nan

>  <Num_Resolved_Atoms>  (846) 
nan

>  <Num_Not_Resolved_Atoms>  (846) 
nan

$$$$
CHEMBL437765
     RDKit          3D

  0  0  0  0  0  0  0  0  0  0999 V3000
M  V30 BEGIN CTAB
M  V30 COUNTS 97 100 0 0 0
M  V30 BEGIN ATOM
M  V30 1 C 3.383363 -2.180901 4.273558 0
M  V30 2 O 2.636622 -2.838178 3.306297 0
M  V30 3 C 2.155752 -1.895466 2.330085 0 CFG=1
M  V30 4 C 2.783989 -2.330477 1.043963 0
M  V30 5 C 3.876742 -1.685078 0.613637 0
M  V30 6 O 4.522120 -1.986352 -0.521944 0
M  V30 7 C 5.131583 -1.324516 -1.542955 0 CFG=1
M  V30 8 C 6.597815 -1.166559 -1.449247 0
M  V30 9 O 4.877028 -2.111776 -2.777286 0
M  V30 10 C 3.513307 -1.797778 -3.065491 0
M  V30 11 C 2.665804 -2.626567 -3.735923 0
M  V30 12 C 3.017282 -3.945759 -4.276386 0
M  V30 13 C 1.394544 -2.127799 -3.898455 0
M  V30 14 O 0.400903 -2.834897 -4.552415 0
M  V30 15 C 1.139631 -0.902287 -3.388877 0
M  V30 16 C -0.071832 -0.257655 -3.402016 0
M  V30 17 O -1.010257 -1.085353 -4.086839 0
M  V30 18 C -0.608419 0.911415 -2.958906 0
M  V30 19 C 0.324651 1.659201 -2.320828 0
M  V30 20 C 1.629688 1.249301 -2.160644 0
M  V30 21 O 2.629075 1.919747 -1.542962 0
M  V30 22 C 1.944957 0.017744 -2.691560 0
M  V30 23 C 3.203974 -0.554012 -2.565103 0
M  V30 24 C 4.394148 -0.044621 -1.933550 0
M  V30 25 O 5.073228 1.006181 -1.576841 0
M  V30 26 N -1.963191 1.110432 -3.145995 0
M  V30 27 C -3.257077 1.266456 -3.537551 0
M  V30 28 O -2.938488 1.019055 -4.702795 0
M  V30 29 C -4.579450 1.563460 -3.075311 0
M  V30 30 C -5.552248 1.431869 -4.210942 0
M  V30 31 C -5.142023 1.905445 -1.970284 0
M  V30 32 C -4.169074 2.056781 -0.904341 0
M  V30 33 C -4.647972 2.348144 0.318600 0
M  V30 34 C -4.199360 2.620729 1.689349 0 CFG=2
M  V30 35 C -5.009506 3.823486 2.221934 0
M  V30 36 C -2.822368 2.894024 2.013301 0 CFG=2
M  V30 37 O -2.596181 4.215444 1.393902 0
M  V30 38 C -1.571744 2.213860 1.697769 0 CFG=1
M  V30 39 C -0.532953 3.204972 2.386961 0
M  V30 40 C -1.316897 0.831581 2.227011 0 CFG=1
M  V30 41 O -2.523881 0.154692 1.944623 0
M  V30 42 C -0.214958 0.195041 1.429723 0 CFG=1
M  V30 43 C 1.034737 0.973100 1.545556 0
M  V30 44 C -0.106240 -1.282831 1.387020 0 CFG=2
M  V30 45 O -1.252909 -1.906835 0.826361 0
M  V30 46 C -1.373538 -2.508459 -0.409515 0
M  V30 47 C -2.805781 -2.983444 -0.481514 0
M  V30 48 O -0.300927 -2.453000 -1.024722 0
M  V30 49 C 0.666420 -2.088699 2.307124 0 CFG=2
M  V30 50 C 0.205733 -2.261996 3.712157 0
M  V30 51 H 3.778949 -2.902016 5.017812 0
M  V30 52 H 2.735629 -1.483855 4.888069 0
M  V30 53 H 4.229748 -1.613931 3.843694 0
M  V30 54 H 2.538376 -0.953244 2.689111 0
M  V30 55 H 2.345716 -3.150552 0.498162 0
M  V30 56 H 4.288257 -0.852040 1.214173 0
M  V30 57 H 7.144897 -1.807694 -2.197276 0
M  V30 58 H 6.959045 -1.436010 -0.417100 0
M  V30 59 H 6.910766 -0.104387 -1.593533 0
M  V30 60 H 2.371421 -4.084312 -5.184821 0
M  V30 61 H 2.918558 -4.759834 -3.536581 0
M  V30 62 H 4.055951 -3.904693 -4.699011 0
M  V30 63 H 0.066708 -3.696626 -4.078116 0
M  V30 64 H -0.971941 -1.025985 -5.082134 0
M  V30 65 H 0.158508 2.644245 -1.869331 0
M  V30 66 H 2.668823 2.369202 -0.664696 0
M  V30 67 H -2.097923 1.237729 -2.143217 0
M  V30 68 H -6.602447 1.498574 -3.879206 0
M  V30 69 H -5.355540 0.472145 -4.715212 0
M  V30 70 H -5.266592 2.254762 -4.924138 0
M  V30 71 H -6.167051 2.077352 -1.775814 0
M  V30 72 H -3.166187 2.074018 -0.535825 0
M  V30 73 H -5.775992 2.418030 0.376053 0
M  V30 74 H -4.631214 1.742851 2.290167 0
M  V30 75 H -5.916118 3.395427 2.725927 0
M  V30 76 H -5.325148 4.472673 1.376103 0
M  V30 77 H -4.417184 4.351782 2.978275 0
M  V30 78 H -2.731631 3.223917 3.118133 0
M  V30 79 H -3.101810 4.208753 0.542369 0
M  V30 80 H -1.288639 2.330926 0.644949 0
M  V30 81 H -1.104646 3.874916 3.091963 0
M  V30 82 H 0.080850 2.606732 3.036748 0
M  V30 83 H -0.022273 3.805248 1.666277 0
M  V30 84 H -1.034273 0.879004 3.264635 0
M  V30 85 H -2.631227 -0.555573 2.595557 0
M  V30 86 H -0.564951 0.425239 0.339303 0
M  V30 87 H 1.799639 0.380329 0.905591 0
M  V30 88 H 1.032662 1.932371 0.978377 0
M  V30 89 H 1.526242 1.030939 2.510326 0
M  V30 90 H 0.576367 -1.419621 0.473133 0
M  V30 91 H -3.086367 -3.613299 0.374565 0
M  V30 92 H -3.463359 -2.080375 -0.460989 0
M  V30 93 H -2.991877 -3.590446 -1.397805 0
M  V30 94 H 0.569755 -3.147802 1.880564 0
M  V30 95 H -0.849264 -2.533522 3.817061 0
M  V30 96 H 0.785049 -3.122167 4.114021 0
M  V30 97 H 0.400704 -1.430592 4.383875 0
M  V30 END ATOM
M  V30 BEGIN BOND
M  V30 1 1 1 2
M  V30 2 1 2 3
M  V30 3 1 3 4
M  V30 4 2 4 5
M  V30 5 1 5 6
M  V30 6 1 6 7
M  V30 7 1 7 8 CFG=1
M  V30 8 1 7 9
M  V30 9 1 9 10
M  V30 10 2 10 11
M  V30 11 1 11 12
M  V30 12 1 11 13
M  V30 13 1 13 14
M  V30 14 2 13 15
M  V30 15 1 15 16
M  V30 16 1 16 17
M  V30 17 2 16 18
M  V30 18 1 18 19
M  V30 19 2 19 20
M  V30 20 1 20 21
M  V30 21 1 20 22
M  V30 22 2 22 23
M  V30 23 1 23 24
M  V30 24 2 24 25
M  V30 25 1 18 26
M  V30 26 1 26 27
M  V30 27 2 27 28
M  V30 28 1 27 29
M  V30 29 1 29 30
M  V30 30 2 29 31
M  V30 31 1 31 32
M  V30 32 2 32 33
M  V30 33 1 33 34
M  V30 34 1 34 35
M  V30 35 1 34 36
M  V30 36 1 36 37
M  V30 37 1 36 38
M  V30 38 1 38 39
M  V30 39 1 38 40
M  V30 40 1 40 41
M  V30 41 1 40 42
M  V30 42 1 42 43
M  V30 43 1 42 44
M  V30 44 1 44 45
M  V30 45 1 45 46
M  V30 46 1 46 47
M  V30 47 2 46 48
M  V30 48 1 44 49
M  V30 49 1 49 50
M  V30 50 1 49 3
M  V30 51 1 24 7
M  V30 52 1 23 10
M  V30 53 1 22 15
M  V30 54 1 1 51
M  V30 55 1 1 52
M  V30 56 1 1 53
M  V30 57 1 3 54 CFG=1
M  V30 58 1 4 55
M  V30 59 1 5 56
M  V30 60 1 8 57
M  V30 61 1 8 58
M  V30 62 1 8 59
M  V30 63 1 12 60
M  V30 64 1 12 61
M  V30 65 1 12 62
M  V30 66 1 14 63
M  V30 67 1 17 64
M  V30 68 1 19 65
M  V30 69 1 21 66
M  V30 70 1 26 67
M  V30 71 1 30 68
M  V30 72 1 30 69
M  V30 73 1 30 70
M  V30 74 1 31 71
M  V30 75 1 32 72
M  V30 76 1 33 73
M  V30 77 1 34 74 CFG=1
M  V30 78 1 35 75
M  V30 79 1 35 76
M  V30 80 1 35 77
M  V30 81 1 36 78 CFG=1
M  V30 82 1 37 79
M  V30 83 1 38 80 CFG=3
M  V30 84 1 39 81
M  V30 85 1 39 82
M  V30 86 1 39 83
M  V30 87 1 40 84 CFG=1
M  V30 88 1 41 85
M  V30 89 1 42 86 CFG=3
M  V30 90 1 43 87
M  V30 91 1 43 88
M  V30 92 1 43 89
M  V30 93 1 44 90 CFG=3
M  V30 94 1 47 91
M  V30 95 1 47 92
M  V30 96 1 47 93
M  V30 97 1 49 94 CFG=3
M  V30 98 1 50 95
M  V30 99 1 50 96
M  V30 100 1 50 97
M  V30 END BOND
M  V30 END CTAB
M  END
>  <Dataset>  (847) 
OralDrugs

>  <Ligand_Instance>  (847) 
nan

>  <PDB_ID>  (847) 
nan

>  <Standardized_SMILES>  (847) 
CO[C@H]1/C=C/O[C@@]2(C)Oc3c(C)c(O)c4c(O)c(cc(O)c4c3C2=O)NC(=O)/C(C)=C\C=C\[C@H](C)[C@H](O)[C@@H](C)[C@@H](O)[C@@H](C)[C@H](OC(C)=O)[C@@H]1C

>  <Name>  (847) 
Rifamycin

>  <Pocket>  (847) 
nan

>  <ATP_Site>  (847) 
nan

>  <Peripheral>  (847) 
nan

>  <Num_H_Atoms_ProtBoundConf>  (847) 
nan

>  <Num_Resolved_Atoms>  (847) 
nan

>  <Num_Not_Resolved_Atoms>  (847) 
nan

$$$$
CHEMBL1660
     RDKit          3D

  0  0  0  0  0  0  0  0  0  0999 V3000
M  V30 BEGIN CTAB
M  V30 COUNTS 127 132 0 0 0
M  V30 BEGIN ATOM
M  V30 1 C 0.183525 -7.052953 4.312995 0
M  V30 2 O 0.359162 -5.668086 4.456224 0
M  V30 3 C 0.771742 -5.157575 3.203922 0 CFG=1
M  V30 4 C -0.385139 -4.206947 2.913274 0
M  V30 5 C -1.552153 -4.662603 2.589522 0
M  V30 6 O -2.833417 -4.082323 2.261497 0
M  V30 7 C -2.954958 -3.512589 1.017517 0 CFG=1
M  V30 8 C -1.761741 -3.892875 0.137970 0
M  V30 9 O -4.148480 -3.830938 0.237638 0
M  V30 10 C -3.777354 -3.146738 -1.002572 0
M  V30 11 C -3.926433 -3.358045 -2.379132 0
M  V30 12 C -4.700983 -4.580527 -2.795691 0
M  V30 13 C -3.343174 -2.401511 -3.227937 0
M  V30 14 O -3.605424 -2.792178 -4.567170 0
M  V30 15 C -2.633804 -1.269979 -2.701028 0
M  V30 16 C -2.135948 -0.517946 -3.784227 0
M  V30 17 O -2.346332 -0.828138 -5.074724 0
M  V30 18 C -1.682456 0.157008 -2.688525 0
M  V30 19 C -1.356379 0.644213 -1.478561 0
M  V30 20 C -0.612964 1.808195 -1.207682 0
M  V30 21 N -0.561613 1.902464 0.045505 0
M  V30 22 N 0.082372 2.917477 0.752379 0
M  V30 23 C -0.309006 3.088576 2.164172 0
M  V30 24 C -1.031973 4.438156 2.162454 0
M  V30 25 N -0.859386 5.120554 0.910893 0
M  V30 26 C -1.842196 6.084235 0.712437 0
M  V30 27 C -1.780140 6.922432 -0.496391 0
M  V30 28 C -2.971920 6.647166 -1.372550 0
M  V30 29 C -3.914604 5.797005 -0.556305 0
M  V30 30 C -3.188601 5.344456 0.662733 0
M  V30 31 C 0.484466 5.320149 0.593265 0
M  V30 32 C 1.112641 3.922767 0.415969 0
M  V30 33 C -2.032102 -0.380990 -0.900412 0
M  V30 34 O -1.754956 0.038021 0.425257 0
M  V30 35 C -2.729202 -1.432042 -1.499755 0
M  V30 36 C -3.115417 -2.066121 -0.371844 0
M  V30 37 C -3.052327 -2.018835 1.049574 0
M  V30 38 O -3.041583 -1.451232 2.134029 0
M  V30 39 N -0.694999 0.628420 -3.581551 0
M  V30 40 C 0.163318 1.130911 -4.583478 0
M  V30 41 O -0.925774 1.238975 -5.155736 0
M  V30 42 C 1.377877 1.527093 -5.205142 0
M  V30 43 C 1.230440 1.946013 -6.576205 0
M  V30 44 C 2.151512 1.326693 -4.231828 0
M  V30 45 C 2.948891 1.080858 -3.107285 0
M  V30 46 C 2.730315 0.667410 -1.864940 0
M  V30 47 C 3.776279 0.500112 -0.892907 0 CFG=2
M  V30 48 C 5.114301 1.120407 -1.349316 0
M  V30 49 C 3.966092 -0.791563 -0.175483 0 CFG=2
M  V30 50 O 3.845868 -1.884811 -0.956079 0
M  V30 51 C 3.290411 -0.893402 1.159016 0 CFG=1
M  V30 52 C 1.801421 -0.775788 1.124333 0
M  V30 53 C 3.888770 -1.789934 2.170359 0 CFG=1
M  V30 54 O 3.116476 -1.477373 3.368615 0
M  V30 55 C 3.937794 -3.230208 2.067015 0 CFG=1
M  V30 56 C 4.962281 -3.734498 3.067139 0
M  V30 57 C 2.721607 -4.096124 2.135119 0 CFG=2
M  V30 58 O 1.855382 -3.891536 1.038429 0
M  V30 59 C 1.796786 -4.801146 -0.019395 0
M  V30 60 C 1.025315 -4.894120 -1.297591 0
M  V30 61 O 2.543726 -5.826979 0.036366 0
M  V30 62 C 2.037109 -4.315287 3.407221 0 CFG=2
M  V30 63 C 2.816079 -4.996176 4.516290 0
M  V30 64 H -0.140174 -7.479259 5.280926 0
M  V30 65 H -0.541866 -7.340071 3.549430 0
M  V30 66 H 1.156167 -7.536056 4.059448 0
M  V30 67 H 0.822874 -5.926778 2.478953 0
M  V30 68 H -0.424108 -3.115740 2.921249 0
M  V30 69 H -2.076434 -5.592989 2.426995 0
M  V30 70 H -1.139106 -4.656393 0.626487 0
M  V30 71 H -2.166364 -4.321977 -0.796513 0
M  V30 72 H -1.160441 -3.006210 -0.144943 0
M  V30 73 H -5.069501 -5.078231 -1.889091 0
M  V30 74 H -4.102059 -5.257143 -3.412246 0
M  V30 75 H -5.619104 -4.199123 -3.311019 0
M  V30 76 H -4.445249 -2.392367 -4.979481 0
M  V30 77 H -1.639700 -1.347337 -5.618485 0
M  V30 78 H -0.164693 2.498762 -1.849920 0
M  V30 79 H -1.001052 2.286601 2.495855 0
M  V30 80 H 0.614415 3.136699 2.769600 0
M  V30 81 H -2.102787 4.294100 2.429124 0
M  V30 82 H -0.551404 5.036644 2.963494 0
M  V30 83 H -1.950185 6.760518 1.609819 0
M  V30 84 H -0.891111 6.807863 -1.144589 0
M  V30 85 H -1.804835 8.023547 -0.251751 0
M  V30 86 H -2.692718 6.051890 -2.285352 0
M  V30 87 H -3.483338 7.542168 -1.757242 0
M  V30 88 H -4.770655 6.458558 -0.261322 0
M  V30 89 H -4.360268 4.985281 -1.168467 0
M  V30 90 H -3.773434 5.448908 1.575990 0
M  V30 91 H -3.028241 4.232133 0.548085 0
M  V30 92 H 0.688035 5.811526 -0.374016 0
M  V30 93 H 1.033984 5.858461 1.418693 0
M  V30 94 H 1.913736 3.805279 1.175361 0
M  V30 95 H 1.547199 3.762180 -0.568654 0
M  V30 96 H -0.966950 -0.213324 0.953812 0
M  V30 97 H 0.268874 0.481557 -3.184350 0
M  V30 98 H 1.079827 3.034389 -6.704020 0
M  V30 99 H 0.395097 1.411136 -7.104565 0
M  V30 100 H 2.142784 1.623275 -7.165070 0
M  V30 101 H 2.845430 1.685790 -4.984701 0
M  V30 102 H 4.010307 1.239114 -3.211902 0
M  V30 103 H 1.806911 0.383750 -1.392009 0
M  V30 104 H 3.517236 1.234566 -0.026467 0
M  V30 105 H 5.534432 0.471995 -2.106625 0
M  V30 106 H 4.896959 2.151361 -1.684944 0
M  V30 107 H 5.754221 1.200336 -0.424365 0
M  V30 108 H 5.122623 -0.775861 0.034322 0
M  V30 109 H 4.609083 -2.152783 -1.496536 0
M  V30 110 H 3.562497 0.162620 1.599712 0
M  V30 111 H 1.411978 -0.953456 2.161209 0
M  V30 112 H 1.282896 -1.336387 0.338374 0
M  V30 113 H 1.487264 0.298842 0.935432 0
M  V30 114 H 4.894199 -1.420490 2.446425 0
M  V30 115 H 3.482325 -0.661581 3.755020 0
M  V30 116 H 4.416654 -3.503097 1.073892 0
M  V30 117 H 4.860177 -3.381845 4.074872 0
M  V30 118 H 5.927668 -3.210515 2.699317 0
M  V30 119 H 5.218340 -4.794782 2.898097 0
M  V30 120 H 3.181520 -5.136184 1.899983 0
M  V30 121 H 0.217724 -5.644719 -1.172803 0
M  V30 122 H 0.596072 -3.886861 -1.552909 0
M  V30 123 H 1.676572 -5.240290 -2.125058 0
M  V30 124 H 1.633526 -3.388656 3.892527 0
M  V30 125 H 3.568401 -5.706632 4.195527 0
M  V30 126 H 2.103583 -5.637489 5.144634 0
M  V30 127 H 3.167415 -4.262125 5.296388 0
M  V30 END ATOM
M  V30 BEGIN BOND
M  V30 1 1 1 2
M  V30 2 1 2 3
M  V30 3 1 3 4
M  V30 4 2 4 5
M  V30 5 1 5 6
M  V30 6 1 6 7
M  V30 7 1 7 8 CFG=3
M  V30 8 1 7 9
M  V30 9 1 9 10
M  V30 10 2 10 11
M  V30 11 1 11 12
M  V30 12 1 11 13
M  V30 13 1 13 14
M  V30 14 2 13 15
M  V30 15 1 15 16
M  V30 16 1 16 17
M  V30 17 2 16 18
M  V30 18 1 18 19
M  V30 19 1 19 20
M  V30 20 2 20 21
M  V30 21 1 21 22
M  V30 22 1 22 23
M  V30 23 1 23 24
M  V30 24 1 24 25
M  V30 25 1 25 26
M  V30 26 1 26 27
M  V30 27 1 27 28
M  V30 28 1 28 29
M  V30 29 1 29 30
M  V30 30 1 25 31
M  V30 31 1 31 32
M  V30 32 2 19 33
M  V30 33 1 33 34
M  V30 34 1 33 35
M  V30 35 2 35 36
M  V30 36 1 36 37
M  V30 37 2 37 38
M  V30 38 1 18 39
M  V30 39 1 39 40
M  V30 40 2 40 41
M  V30 41 1 40 42
M  V30 42 1 42 43
M  V30 43 2 42 44
M  V30 44 1 44 45
M  V30 45 2 45 46
M  V30 46 1 46 47
M  V30 47 1 47 48
M  V30 48 1 47 49
M  V30 49 1 49 50
M  V30 50 1 49 51
M  V30 51 1 51 52
M  V30 52 1 51 53
M  V30 53 1 53 54
M  V30 54 1 53 55
M  V30 55 1 55 56
M  V30 56 1 55 57
M  V30 57 1 57 58
M  V30 58 1 58 59
M  V30 59 1 59 60
M  V30 60 2 59 61
M  V30 61 1 57 62
M  V30 62 1 62 63
M  V30 63 1 62 3
M  V30 64 1 37 7
M  V30 65 1 36 10
M  V30 66 1 35 15
M  V30 67 1 32 22
M  V30 68 1 30 26
M  V30 69 1 1 64
M  V30 70 1 1 65
M  V30 71 1 1 66
M  V30 72 1 3 67 CFG=3
M  V30 73 1 4 68
M  V30 74 1 5 69
M  V30 75 1 8 70
M  V30 76 1 8 71
M  V30 77 1 8 72
M  V30 78 1 12 73
M  V30 79 1 12 74
M  V30 80 1 12 75
M  V30 81 1 14 76
M  V30 82 1 17 77
M  V30 83 1 20 78
M  V30 84 1 23 79
M  V30 85 1 23 80
M  V30 86 1 24 81
M  V30 87 1 24 82
M  V30 88 1 26 83
M  V30 89 1 27 84
M  V30 90 1 27 85
M  V30 91 1 28 86
M  V30 92 1 28 87
M  V30 93 1 29 88
M  V30 94 1 29 89
M  V30 95 1 30 90
M  V30 96 1 30 91
M  V30 97 1 31 92
M  V30 98 1 31 93
M  V30 99 1 32 94
M  V30 100 1 32 95
M  V30 101 1 34 96
M  V30 102 1 39 97
M  V30 103 1 43 98
M  V30 104 1 43 99
M  V30 105 1 43 100
M  V30 106 1 44 101
M  V30 107 1 45 102
M  V30 108 1 46 103
M  V30 109 1 47 104 CFG=1
M  V30 110 1 48 105
M  V30 111 1 48 106
M  V30 112 1 48 107
M  V30 113 1 49 108 CFG=1
M  V30 114 1 50 109
M  V30 115 1 51 110 CFG=1
M  V30 116 1 52 111
M  V30 117 1 52 112
M  V30 118 1 52 113
M  V30 119 1 53 114 CFG=1
M  V30 120 1 54 115
M  V30 121 1 55 116 CFG=3
M  V30 122 1 56 117
M  V30 123 1 56 118
M  V30 124 1 56 119
M  V30 125 1 57 120 CFG=3
M  V30 126 1 60 121
M  V30 127 1 60 122
M  V30 128 1 60 123
M  V30 129 1 62 124 CFG=1
M  V30 130 1 63 125
M  V30 131 1 63 126
M  V30 132 1 63 127
M  V30 END BOND
M  V30 END CTAB
M  END
>  <Dataset>  (848) 
OralDrugs

>  <Ligand_Instance>  (848) 
nan

>  <PDB_ID>  (848) 
nan

>  <Standardized_SMILES>  (848) 
CO[C@H]1/C=C/O[C@@]2(C)Oc3c(C)c(O)c4c(O)c(c(/C=N/N5CCN(C6CCCC6)CC5)c(O)c4c3C2=O)NC(=O)/C(C)=C\C=C\[C@H](C)[C@H](O)[C@@H](C)[C@@H](O)[C@@H](C)[C@H](OC(C)=O)[C@@H]1C

>  <Name>  (848) 
Rifapentine

>  <Pocket>  (848) 
nan

>  <ATP_Site>  (848) 
nan

>  <Peripheral>  (848) 
nan

>  <Num_H_Atoms_ProtBoundConf>  (848) 
nan

>  <Num_Resolved_Atoms>  (848) 
nan

>  <Num_Not_Resolved_Atoms>  (848) 
nan

$$$$
CHEMBL1617
     RDKit          3D

  0  0  0  0  0  0  0  0  0  0999 V3000
M  V30 BEGIN CTAB
M  V30 COUNTS 108 113 0 0 0
M  V30 BEGIN ATOM
M  V30 1 C 0.226498 -3.309363 5.507286 0
M  V30 2 O -0.238057 -2.568694 4.407990 0
M  V30 3 C 0.796021 -2.330503 3.483985 0 CFG=1
M  V30 4 C 0.592323 -3.159358 2.287281 0
M  V30 5 C 1.370207 -4.058780 1.692950 0
M  V30 6 O 0.854581 -4.663693 0.564753 0
M  V30 7 C 1.702930 -5.489866 -0.193472 0 CFG=1
M  V30 8 C 2.699739 -6.282900 0.537408 0
M  V30 9 O 0.939104 -6.362405 -1.044608 0
M  V30 10 C 0.132348 -5.451355 -1.780246 0
M  V30 11 C -1.122948 -5.413908 -2.342354 0
M  V30 12 C -1.957491 -6.629544 -2.197497 0
M  V30 13 C -1.590281 -4.309252 -3.008254 0
M  V30 14 O -2.843634 -4.243525 -3.581586 0
M  V30 15 C -0.715693 -3.225234 -3.080518 0
M  V30 16 C -1.088077 -2.031878 -3.729516 0
M  V30 17 O -2.369769 -2.076475 -4.271717 0
M  V30 18 C -0.240975 -0.913485 -3.817682 0
M  V30 19 C 0.991889 -0.942803 -3.273212 0
M  V30 20 C 1.361925 -2.105546 -2.637169 0
M  V30 21 N 2.617063 -1.873517 -2.203129 0
M  V30 22 C 3.028374 -0.638545 -2.540389 0
M  V30 23 C 4.252208 -0.069719 -2.267818 0
M  V30 24 C 4.400202 1.236165 -2.754166 0
M  V30 25 C 5.684457 1.915287 -2.504149 0
M  V30 26 C 3.339987 1.820968 -3.442683 0
M  V30 27 C 2.138041 1.187559 -3.679193 0
M  V30 28 N 2.012376 -0.083321 -3.198336 0
M  V30 29 C 0.552001 -3.211487 -2.534751 0
M  V30 30 C 0.991660 -4.338402 -1.872323 0
M  V30 31 C 2.278294 -4.539611 -1.227290 0
M  V30 32 O 3.475189 -4.304254 -1.168068 0
M  V30 33 N -1.005489 0.064671 -4.513098 0
M  V30 34 C -1.735637 1.188429 -4.016624 0
M  V30 35 O -1.147254 0.479360 -3.234101 0
M  V30 36 C -2.555978 2.348155 -4.108639 0
M  V30 37 C -2.618002 2.218634 -5.539224 0
M  V30 38 C -2.743379 2.790678 -2.924250 0
M  V30 39 C -2.509928 2.660071 -1.532596 0
M  V30 40 C -3.088257 3.590296 -0.826876 0
M  V30 41 C -3.000068 3.673789 0.624843 0 CFG=2
M  V30 42 C -2.551450 5.061492 1.011820 0
M  V30 43 C -2.156406 2.565442 1.266617 0 CFG=2
M  V30 44 O -2.816236 1.393669 0.858744 0
M  V30 45 C -2.171192 2.631320 2.733696 0 CFG=1
M  V30 46 C -3.618810 2.513857 3.271631 0
M  V30 47 C -1.303852 1.947409 3.643275 0 CFG=1
M  V30 48 O -1.769328 2.343301 4.944722 0
M  V30 49 C -0.905460 0.527039 3.638561 0 CFG=1
M  V30 50 C -2.036000 -0.451467 3.566523 0
M  V30 51 C 0.364698 0.180452 2.956013 0 CFG=2
M  V30 52 O 0.462042 0.377292 1.577067 0
M  V30 53 C 1.264511 1.410687 1.036973 0
M  V30 54 C 1.460572 1.737503 -0.404162 0
M  V30 55 O 1.954205 2.233384 1.731478 0
M  V30 56 C 1.186344 -0.949853 3.390552 0 CFG=2
M  V30 57 C 2.469251 -0.898157 2.534717 0
M  V30 58 H 0.611866 -4.263860 5.142981 0
M  V30 59 H -0.689501 -3.508447 6.128097 0
M  V30 60 H 0.977235 -2.756809 6.112759 0
M  V30 61 H 1.667958 -2.864337 3.998976 0
M  V30 62 H -0.415786 -2.889506 1.921336 0
M  V30 63 H 2.290904 -4.088210 2.302277 0
M  V30 64 H 3.552949 -6.582565 -0.107397 0
M  V30 65 H 2.188765 -7.210675 0.912080 0
M  V30 66 H 3.018158 -5.754897 1.446671 0
M  V30 67 H -1.948237 -6.944785 -1.124699 0
M  V30 68 H -2.984493 -6.381393 -2.462566 0
M  V30 69 H -1.532996 -7.402976 -2.868169 0
M  V30 70 H -3.023971 -4.875327 -4.378385 0
M  V30 71 H -2.609548 -2.511753 -5.133795 0
M  V30 72 H 5.019188 -0.601106 -1.723286 0
M  V30 73 H 6.021052 1.834288 -1.450023 0
M  V30 74 H 5.652696 2.951886 -2.853606 0
M  V30 75 H 6.505640 1.420349 -3.096749 0
M  V30 76 H 3.524824 2.833039 -3.792389 0
M  V30 77 H 1.337208 1.675906 -4.218784 0
M  V30 78 H -1.010735 -0.156449 -5.535130 0
M  V30 79 H -3.401601 2.956122 -5.949850 0
M  V30 80 H -1.667001 2.456062 -6.061992 0
M  V30 81 H -2.994736 1.261310 -5.964465 0
M  V30 82 H -3.310355 3.524016 -3.441258 0
M  V30 83 H -1.923448 1.800770 -1.665023 0
M  V30 84 H -3.693663 4.403642 -1.194985 0
M  V30 85 H -4.057467 3.620196 1.027715 0
M  V30 86 H -3.192353 5.743801 0.374265 0
M  V30 87 H -1.529242 5.306270 0.712692 0
M  V30 88 H -2.830192 5.354370 2.046649 0
M  V30 89 H -1.220183 2.602617 0.738024 0
M  V30 90 H -3.757671 1.523007 0.650939 0
M  V30 91 H -1.966190 3.745543 2.929064 0
M  V30 92 H -4.270658 1.967063 2.571139 0
M  V30 93 H -3.621411 2.105310 4.313485 0
M  V30 94 H -4.105959 3.510100 3.383576 0
M  V30 95 H -0.289126 2.500940 3.666711 0
M  V30 96 H -1.043932 2.124884 5.613247 0
M  V30 97 H -0.563598 0.374351 4.749893 0
M  V30 98 H -3.005070 0.060126 3.255017 0
M  V30 99 H -2.357845 -0.891333 4.530172 0
M  V30 100 H -1.933062 -1.231921 2.785541 0
M  V30 101 H 1.035579 1.083236 3.334786 0
M  V30 102 H 1.164638 2.760655 -0.641085 0
M  V30 103 H 2.525869 1.645242 -0.602188 0
M  V30 104 H 0.798876 1.034782 -0.949039 0
M  V30 105 H 1.620596 -0.701204 4.424453 0
M  V30 106 H 3.068811 -0.004767 2.852524 0
M  V30 107 H 2.262333 -0.792873 1.470252 0
M  V30 108 H 3.074909 -1.796446 2.689643 0
M  V30 END ATOM
M  V30 BEGIN BOND
M  V30 1 1 1 2
M  V30 2 1 2 3
M  V30 3 1 3 4
M  V30 4 2 4 5
M  V30 5 1 5 6
M  V30 6 1 6 7
M  V30 7 1 7 8 CFG=1
M  V30 8 1 7 9
M  V30 9 1 9 10
M  V30 10 2 10 11
M  V30 11 1 11 12
M  V30 12 1 11 13
M  V30 13 1 13 14
M  V30 14 2 13 15
M  V30 15 1 15 16
M  V30 16 1 16 17
M  V30 17 2 16 18
M  V30 18 1 18 19
M  V30 19 2 19 20
M  V30 20 1 20 21
M  V30 21 2 21 22
M  V30 22 1 22 23
M  V30 23 2 23 24
M  V30 24 1 24 25
M  V30 25 1 24 26
M  V30 26 2 26 27
M  V30 27 1 27 28
M  V30 28 1 20 29
M  V30 29 2 29 30
M  V30 30 1 30 31
M  V30 31 2 31 32
M  V30 32 1 18 33
M  V30 33 1 33 34
M  V30 34 2 34 35
M  V30 35 1 34 36
M  V30 36 1 36 37
M  V30 37 2 36 38
M  V30 38 1 38 39
M  V30 39 2 39 40
M  V30 40 1 40 41
M  V30 41 1 41 42
M  V30 42 1 41 43
M  V30 43 1 43 44
M  V30 44 1 43 45
M  V30 45 1 45 46
M  V30 46 1 45 47
M  V30 47 1 47 48
M  V30 48 1 47 49
M  V30 49 1 49 50
M  V30 50 1 49 51
M  V30 51 1 51 52
M  V30 52 1 52 53
M  V30 53 1 53 54
M  V30 54 2 53 55
M  V30 55 1 51 56
M  V30 56 1 56 57
M  V30 57 1 56 3
M  V30 58 1 31 7
M  V30 59 1 30 10
M  V30 60 1 29 15
M  V30 61 1 28 19
M  V30 62 1 28 22
M  V30 63 1 1 58
M  V30 64 1 1 59
M  V30 65 1 1 60
M  V30 66 1 3 61 CFG=1
M  V30 67 1 4 62
M  V30 68 1 5 63
M  V30 69 1 8 64
M  V30 70 1 8 65
M  V30 71 1 8 66
M  V30 72 1 12 67
M  V30 73 1 12 68
M  V30 74 1 12 69
M  V30 75 1 14 70
M  V30 76 1 17 71
M  V30 77 1 23 72
M  V30 78 1 25 73
M  V30 79 1 25 74
M  V30 80 1 25 75
M  V30 81 1 26 76
M  V30 82 1 27 77
M  V30 83 1 33 78
M  V30 84 1 37 79
M  V30 85 1 37 80
M  V30 86 1 37 81
M  V30 87 1 38 82
M  V30 88 1 39 83
M  V30 89 1 40 84
M  V30 90 1 41 85 CFG=1
M  V30 91 1 42 86
M  V30 92 1 42 87
M  V30 93 1 42 88
M  V30 94 1 43 89 CFG=3
M  V30 95 1 44 90
M  V30 96 1 45 91 CFG=3
M  V30 97 1 46 92
M  V30 98 1 46 93
M  V30 99 1 46 94
M  V30 100 1 47 95 CFG=3
M  V30 101 1 48 96
M  V30 102 1 49 97 CFG=1
M  V30 103 1 50 98
M  V30 104 1 50 99
M  V30 105 1 50 100
M  V30 106 1 51 101 CFG=1
M  V30 107 1 54 102
M  V30 108 1 54 103
M  V30 109 1 54 104
M  V30 110 1 56 105 CFG=1
M  V30 111 1 57 106
M  V30 112 1 57 107
M  V30 113 1 57 108
M  V30 END BOND
M  V30 END CTAB
M  END
>  <Dataset>  (849) 
OralDrugs

>  <Ligand_Instance>  (849) 
nan

>  <PDB_ID>  (849) 
nan

>  <Standardized_SMILES>  (849) 
CO[C@H]1/C=C/O[C@@]2(C)Oc3c(C)c(O)c4c(O)c(c5c(nc6cc(C)ccn65)c4c3C2=O)NC(=O)/C(C)=C\C=C\[C@H](C)[C@H](O)[C@@H](C)[C@@H](O)[C@@H](C)[C@H](OC(C)=O)[C@@H]1C

>  <Name>  (849) 
Rifaximin

>  <Pocket>  (849) 
nan

>  <ATP_Site>  (849) 
nan

>  <Peripheral>  (849) 
nan

>  <Num_H_Atoms_ProtBoundConf>  (849) 
nan

>  <Num_Resolved_Atoms>  (849) 
nan

>  <Num_Not_Resolved_Atoms>  (849) 
nan

$$$$
CHEMBL289480
     RDKit          3D

  0  0  0  0  0  0  0  0  0  0999 V3000
M  V30 BEGIN CTAB
M  V30 COUNTS 29 31 0 0 0
M  V30 BEGIN ATOM
M  V30 1 C 0.890920 1.275390 3.640703 0
M  V30 2 C 2.293553 1.406128 3.093073 0
M  V30 3 O 2.200094 0.715237 1.883238 0
M  V30 4 C 1.099370 -0.140491 1.917668 0
M  V30 5 N 0.776156 -1.231272 1.015235 0
M  V30 6 C -0.549160 -1.347857 0.493498 0
M  V30 7 C -0.938230 -0.300346 -0.512384 0
M  V30 8 C -0.955727 1.148709 -0.222952 0
M  V30 9 C 0.144857 0.569530 -1.058910 0
M  V30 10 C -0.858693 -2.702214 -0.051969 0
M  V30 11 C -0.043876 -3.259315 -1.164966 0
M  V30 12 C 0.074873 -3.831837 0.221765 0
M  V30 13 N 0.324564 0.160082 2.924348 0
M  V30 14 H 0.883799 1.095033 4.735376 0
M  V30 15 H 0.305367 2.185998 3.378468 0
M  V30 16 H 2.576451 2.461254 2.925948 0
M  V30 17 H 3.037500 0.893194 3.737586 0
M  V30 18 H 1.611612 -1.843324 0.826396 0
M  V30 19 H -1.243017 -1.216840 1.381085 0
M  V30 20 H -1.728384 -0.637416 -1.231947 0
M  V30 21 H -1.714256 1.788680 -0.739209 0
M  V30 22 H -0.680789 1.528190 0.759066 0
M  V30 23 H 0.066867 0.803533 -2.161953 0
M  V30 24 H 1.146341 0.538265 -0.632341 0
M  V30 25 H -1.945377 -2.961633 -0.134903 0
M  V30 26 H 0.783401 -2.666407 -1.572225 0
M  V30 27 H -0.509057 -3.921029 -1.914409 0
M  V30 28 H 1.039491 -3.706278 0.728183 0
M  V30 29 H -0.365752 -4.855363 0.385226 0
M  V30 END ATOM
M  V30 BEGIN BOND
M  V30 1 1 1 2
M  V30 2 1 2 3
M  V30 3 1 3 4
M  V30 4 1 4 5
M  V30 5 1 5 6
M  V30 6 1 6 7
M  V30 7 1 7 8
M  V30 8 1 8 9
M  V30 9 1 6 10
M  V30 10 1 10 11
M  V30 11 1 11 12
M  V30 12 2 4 13
M  V30 13 1 13 1
M  V30 14 1 9 7
M  V30 15 1 12 10
M  V30 16 1 1 14
M  V30 17 1 1 15
M  V30 18 1 2 16
M  V30 19 1 2 17
M  V30 20 1 5 18
M  V30 21 1 6 19
M  V30 22 1 7 20
M  V30 23 1 8 21
M  V30 24 1 8 22
M  V30 25 1 9 23
M  V30 26 1 9 24
M  V30 27 1 10 25
M  V30 28 1 11 26
M  V30 29 1 11 27
M  V30 30 1 12 28
M  V30 31 1 12 29
M  V30 END BOND
M  V30 END CTAB
M  END
>  <Dataset>  (850) 
OralDrugs

>  <Ligand_Instance>  (850) 
nan

>  <PDB_ID>  (850) 
nan

>  <Standardized_SMILES>  (850) 
C1COC(NC(C2CC2)C2CC2)=N1

>  <Name>  (850) 
Rilmenidine

>  <Pocket>  (850) 
nan

>  <ATP_Site>  (850) 
nan

>  <Peripheral>  (850) 
nan

>  <Num_H_Atoms_ProtBoundConf>  (850) 
nan

>  <Num_Resolved_Atoms>  (850) 
nan

>  <Num_Not_Resolved_Atoms>  (850) 
nan

$$$$
CHEMBL175691
     RDKit          3D

  0  0  0  0  0  0  0  0  0  0999 V3000
M  V30 BEGIN CTAB
M  V30 COUNTS 46 48 0 0 0
M  V30 BEGIN ATOM
M  V30 1 C 1.951227 2.029813 3.543283 0
M  V30 2 C 2.220340 1.545130 2.174848 0
M  V30 3 C 3.511612 1.613396 1.688257 0
M  V30 4 C 3.835933 1.181343 0.421331 0
M  V30 5 C 5.180763 1.232641 -0.135647 0
M  V30 6 C 6.240350 1.695649 0.503350 0
M  V30 7 C 7.560329 1.735802 -0.069346 0
M  V30 8 N 8.622776 1.758870 -0.511049 0
M  V30 9 C 2.815041 0.673839 -0.349765 0
M  V30 10 C 1.507528 0.580979 0.082526 0
M  V30 11 C 0.471177 0.020724 -0.814812 0
M  V30 12 C 1.225874 1.029728 1.370313 0
M  V30 13 N -0.127114 0.941958 1.844784 0
M  V30 14 C -0.905503 -0.035790 2.523416 0
M  V30 15 C -0.926940 -0.047489 3.897840 0
M  V30 16 C -1.701810 -1.020401 4.478074 0
M  V30 17 N -2.393450 -1.902526 3.757947 0
M  V30 18 C -2.383519 -1.904941 2.413469 0
M  V30 19 N -3.131743 -2.857756 1.699113 0
M  V30 20 C -3.246222 -3.012255 0.296930 0
M  V30 21 C -2.631716 -2.239619 -0.658416 0
M  V30 22 C -2.751318 -2.399428 -2.018874 0
M  V30 23 C -3.552059 -3.416631 -2.483506 0
M  V30 24 C -3.725797 -3.645164 -3.888140 0
M  V30 25 N -3.882270 -3.831377 -5.021761 0
M  V30 26 C -4.195548 -4.226376 -1.578156 0
M  V30 27 C -4.029349 -4.007672 -0.240614 0
M  V30 28 N -1.623926 -0.950866 1.885118 0
M  V30 29 H 2.629526 2.920923 3.691658 0
M  V30 30 H 2.100571 1.263929 4.311912 0
M  V30 31 H 0.916916 2.418925 3.597389 0
M  V30 32 H 4.278343 2.019491 2.330757 0
M  V30 33 H 5.381158 0.885681 -1.122641 0
M  V30 34 H 6.129972 2.068743 1.511086 0
M  V30 35 H 3.039579 0.322832 -1.359093 0
M  V30 36 H 0.359017 -1.075036 -0.705984 0
M  V30 37 H -0.505887 0.528062 -0.730577 0
M  V30 38 H 0.817918 0.186956 -1.855594 0
M  V30 39 H -0.715371 1.787502 1.664146 0
M  V30 40 H -0.391336 0.636931 4.526103 0
M  V30 41 H -1.770790 -1.095469 5.571999 0
M  V30 42 H -3.676745 -3.544680 2.270428 0
M  V30 43 H -1.994788 -1.430339 -0.359305 0
M  V30 44 H -2.241616 -1.758083 -2.722982 0
M  V30 45 H -4.827007 -5.028557 -1.952976 0
M  V30 46 H -4.575829 -4.695859 0.411062 0
M  V30 END ATOM
M  V30 BEGIN BOND
M  V30 1 1 1 2
M  V30 2 2 2 3
M  V30 3 1 3 4
M  V30 4 1 4 5
M  V30 5 2 5 6
M  V30 6 1 6 7
M  V30 7 3 7 8
M  V30 8 2 4 9
M  V30 9 1 9 10
M  V30 10 1 10 11
M  V30 11 2 10 12
M  V30 12 1 12 13
M  V30 13 1 13 14
M  V30 14 2 14 15
M  V30 15 1 15 16
M  V30 16 2 16 17
M  V30 17 1 17 18
M  V30 18 1 18 19
M  V30 19 1 19 20
M  V30 20 2 20 21
M  V30 21 1 21 22
M  V30 22 2 22 23
M  V30 23 1 23 24
M  V30 24 3 24 25
M  V30 25 1 23 26
M  V30 26 2 26 27
M  V30 27 2 18 28
M  V30 28 1 12 2
M  V30 29 1 28 14
M  V30 30 1 27 20
M  V30 31 1 1 29
M  V30 32 1 1 30
M  V30 33 1 1 31
M  V30 34 1 3 32
M  V30 35 1 5 33
M  V30 36 1 6 34
M  V30 37 1 9 35
M  V30 38 1 11 36
M  V30 39 1 11 37
M  V30 40 1 11 38
M  V30 41 1 13 39
M  V30 42 1 15 40
M  V30 43 1 16 41
M  V30 44 1 19 42
M  V30 45 1 21 43
M  V30 46 1 22 44
M  V30 47 1 26 45
M  V30 48 1 27 46
M  V30 END BOND
M  V30 END CTAB
M  END
>  <Dataset>  (851) 
OralDrugs

>  <Ligand_Instance>  (851) 
nan

>  <PDB_ID>  (851) 
nan

>  <Standardized_SMILES>  (851) 
Cc1cc(/C=C/C#N)cc(C)c1Nc1ccnc(Nc2ccc(C#N)cc2)n1

>  <Name>  (851) 
Rilpivirine

>  <Pocket>  (851) 
nan

>  <ATP_Site>  (851) 
nan

>  <Peripheral>  (851) 
nan

>  <Num_H_Atoms_ProtBoundConf>  (851) 
nan

>  <Num_Resolved_Atoms>  (851) 
nan

>  <Num_Not_Resolved_Atoms>  (851) 
nan

$$$$
CHEMBL744
     RDKit          3D

  0  0  0  0  0  0  0  0  0  0999 V3000
M  V30 BEGIN CTAB
M  V30 COUNTS 20 21 0 0 0
M  V30 BEGIN ATOM
M  V30 1 N 0.187999 -0.202734 5.287907 0
M  V30 2 C 0.149914 -0.147473 3.830007 0
M  V30 3 N 0.671986 -0.762765 3.042292 0
M  V30 4 C 0.653173 -0.731415 1.728762 0
M  V30 5 C 1.325513 -1.524523 0.818149 0
M  V30 6 C 1.147892 -1.304179 -0.524603 0
M  V30 7 C 0.340691 -0.340651 -1.090183 0
M  V30 8 O 0.164806 -0.122282 -2.445002 0
M  V30 9 C 1.058756 0.802082 -3.077117 0
M  V30 10 F 2.348825 0.340139 -2.930672 0
M  V30 11 F 0.702330 1.092997 -4.358785 0
M  V30 12 F 0.988513 1.983251 -2.328085 0
M  V30 13 C -0.331724 0.452361 -0.151792 0
M  V30 14 C -0.153496 0.231146 1.212073 0
M  V30 15 S -0.813942 1.006657 2.626696 0
M  V30 16 H 1.139479 0.011118 5.633891 0
M  V30 17 H -0.704644 -0.439131 5.772537 0
M  V30 18 H 2.006438 -2.335666 1.053926 0
M  V30 19 H 1.667427 -1.916700 -1.280775 0
M  V30 20 H -0.989842 1.236649 -0.425791 0
M  V30 END ATOM
M  V30 BEGIN BOND
M  V30 1 1 1 2
M  V30 2 2 2 3
M  V30 3 1 3 4
M  V30 4 2 4 5
M  V30 5 1 5 6
M  V30 6 2 6 7
M  V30 7 1 7 8
M  V30 8 1 8 9
M  V30 9 1 9 10
M  V30 10 1 9 11
M  V30 11 1 9 12
M  V30 12 1 7 13
M  V30 13 2 13 14
M  V30 14 1 14 15
M  V30 15 1 15 2
M  V30 16 1 14 4
M  V30 17 1 1 16
M  V30 18 1 1 17
M  V30 19 1 5 18
M  V30 20 1 6 19
M  V30 21 1 13 20
M  V30 END BOND
M  V30 END CTAB
M  END
>  <Dataset>  (852) 
OralDrugs

>  <Ligand_Instance>  (852) 
nan

>  <PDB_ID>  (852) 
nan

>  <Standardized_SMILES>  (852) 
Nc1nc2ccc(OC(F)(F)F)cc2s1

>  <Name>  (852) 
Riluzole

>  <Pocket>  (852) 
nan

>  <ATP_Site>  (852) 
nan

>  <Peripheral>  (852) 
nan

>  <Num_H_Atoms_ProtBoundConf>  (852) 
nan

>  <Num_Resolved_Atoms>  (852) 
nan

>  <Num_Not_Resolved_Atoms>  (852) 
nan

$$$$
CHEMBL959
     RDKit          3D

  0  0  0  0  0  0  0  0  0  0999 V3000
M  V30 BEGIN CTAB
M  V30 COUNTS 34 36 0 0 0
M  V30 BEGIN ATOM
M  V30 1 C -0.890376 1.842421 2.194119 0
M  V30 2 C -1.294350 0.414079 2.008044 0
M  V30 3 N -1.229149 -0.250953 3.283496 0
M  V30 4 C -0.481860 -0.293255 0.948731 0
M  V30 5 C 0.971692 -0.270330 1.344289 0
M  V30 6 C 1.812034 -0.980956 0.295141 0
M  V30 7 C 1.666855 -0.294916 -1.030050 0
M  V30 8 C 0.203344 -0.278262 -1.420859 0
M  V30 9 C -0.227900 -1.702120 -1.596437 0
M  V30 10 C -0.097102 -2.409628 -0.252532 0
M  V30 11 C 1.307264 -2.401332 0.242709 0
M  V30 12 C -1.021545 -1.663853 0.691500 0
M  V30 13 C -0.580010 0.464674 -0.359583 0
M  V30 14 H -0.911006 2.469515 1.303474 0
M  V30 15 H -1.666153 2.291974 2.880914 0
M  V30 16 H 0.059418 1.918877 2.794416 0
M  V30 17 H -2.369111 0.424874 1.714615 0
M  V30 18 H -0.298332 -0.274181 3.710193 0
M  V30 19 H -1.823035 -1.078312 3.391197 0
M  V30 20 H 1.184544 -0.621036 2.353076 0
M  V30 21 H 1.285116 0.808415 1.270176 0
M  V30 22 H 2.852746 -0.906354 0.640873 0
M  V30 23 H 2.026445 0.732256 -0.973492 0
M  V30 24 H 2.194300 -0.881568 -1.804375 0
M  V30 25 H 0.113144 0.288803 -2.358060 0
M  V30 26 H -1.253074 -1.822642 -1.950147 0
M  V30 27 H 0.522860 -2.187528 -2.250812 0
M  V30 28 H -0.410166 -3.451747 -0.360369 0
M  V30 29 H 1.289698 -2.750082 1.302778 0
M  V30 30 H 1.959955 -2.986724 -0.399105 0
M  V30 31 H -1.276591 -2.242280 1.591900 0
M  V30 32 H -1.972881 -1.542454 0.131615 0
M  V30 33 H -1.611317 0.656583 -0.656691 0
M  V30 34 H -0.037065 1.434559 -0.222499 0
M  V30 END ATOM
M  V30 BEGIN BOND
M  V30 1 1 1 2
M  V30 2 1 2 3
M  V30 3 1 2 4
M  V30 4 1 4 5
M  V30 5 1 5 6
M  V30 6 1 6 7
M  V30 7 1 7 8
M  V30 8 1 8 9
M  V30 9 1 9 10
M  V30 10 1 10 11
M  V30 11 1 10 12
M  V30 12 1 8 13
M  V30 13 1 12 4
M  V30 14 1 13 4
M  V30 15 1 11 6
M  V30 16 1 1 14
M  V30 17 1 1 15
M  V30 18 1 1 16
M  V30 19 1 2 17
M  V30 20 1 3 18
M  V30 21 1 3 19
M  V30 22 1 5 20
M  V30 23 1 5 21
M  V30 24 1 6 22
M  V30 25 1 7 23
M  V30 26 1 7 24
M  V30 27 1 8 25
M  V30 28 1 9 26
M  V30 29 1 9 27
M  V30 30 1 10 28
M  V30 31 1 11 29
M  V30 32 1 11 30
M  V30 33 1 12 31
M  V30 34 1 12 32
M  V30 35 1 13 33
M  V30 36 1 13 34
M  V30 END BOND
M  V30 END CTAB
M  END
>  <Dataset>  (853) 
OralDrugs

>  <Ligand_Instance>  (853) 
nan

>  <PDB_ID>  (853) 
nan

>  <Standardized_SMILES>  (853) 
CC(N)C12CC3CC(CC(C3)C1)C2

>  <Name>  (853) 
Rimantadine

>  <Pocket>  (853) 
nan

>  <ATP_Site>  (853) 
nan

>  <Peripheral>  (853) 
nan

>  <Num_H_Atoms_ProtBoundConf>  (853) 
nan

>  <Num_Resolved_Atoms>  (853) 
nan

>  <Num_Not_Resolved_Atoms>  (853) 
nan

$$$$
CHEMBL2178422
     RDKit          3D

  0  0  0  0  0  0  0  0  0  0999 V3000
M  V30 BEGIN CTAB
M  V30 COUNTS 67 72 0 0 0
M  V30 BEGIN ATOM
M  V30 1 N 2.920872 1.842302 4.944865 0
M  V30 2 C 2.158776 0.649938 4.538966 0 CFG=2
M  V30 3 C 2.450503 0.356577 3.146943 0
M  V30 4 C 3.774458 -0.100328 3.100459 0
M  V30 5 C 4.375949 -0.470883 1.891292 0
M  V30 6 C 3.664711 -0.390838 0.709756 0
M  V30 7 N 2.400061 0.046451 0.760960 0
M  V30 8 C 1.798619 0.408523 1.908813 0
M  V30 9 C 0.389245 0.871529 1.815141 0 CFG=2
M  V30 10 O -0.015666 1.139524 0.495856 0
M  V30 11 C -1.075914 0.483466 -0.065192 0
M  V30 12 O -1.726136 -0.372813 0.559847 0
M  V30 13 N -1.669366 0.578664 -1.365641 0
M  V30 14 C -2.799055 -0.301166 -1.566081 0
M  V30 15 C -2.711674 -0.809379 -3.004010 0
M  V30 16 C -1.277903 -0.756084 -3.500107 0
M  V30 17 N -1.195096 -1.579239 -4.664711 0
M  V30 18 C -1.306589 -1.326546 -5.974515 0
M  V30 19 O -1.527834 -0.187999 -6.448412 0
M  V30 20 N -1.158410 -2.414905 -6.743373 0
M  V30 21 C -0.939265 -3.429991 -5.897518 0
M  V30 22 N -0.727302 -4.731581 -6.141218 0
M  V30 23 C -0.529407 -5.575289 -5.130054 0
M  V30 24 C -0.535040 -5.146203 -3.807739 0
M  V30 25 C -0.753411 -3.803518 -3.551213 0
M  V30 26 C -0.960797 -2.921164 -4.616972 0
M  V30 27 C -0.782422 0.646041 -3.669708 0
M  V30 28 C -1.256948 1.439477 -2.448731 0
M  V30 29 C 0.213910 2.034743 2.737957 0
M  V30 30 C -0.102771 1.727940 4.138370 0
M  V30 31 C 0.748104 0.841421 4.940103 0 CFG=1
M  V30 32 C 0.074906 -0.452786 5.314648 0
M  V30 33 C 0.171314 -1.597168 4.575203 0
M  V30 34 C -0.425782 -2.801323 4.882344 0
M  V30 35 C -1.186558 -2.867376 6.030303 0
M  V30 36 C -1.339306 -1.760492 6.838112 0
M  V30 37 F -2.089511 -1.789475 7.988298 0
M  V30 38 C -0.707729 -0.599116 6.455309 0
M  V30 39 F -0.874000 0.490356 7.273797 0
M  V30 40 H 2.968826 2.563542 4.220809 0
M  V30 41 H 2.447317 2.214179 5.802764 0
M  V30 42 H 2.572371 -0.153601 5.220776 0
M  V30 43 H 4.398370 -0.191320 3.986069 0
M  V30 44 H 5.409412 -0.824801 1.875164 0
M  V30 45 H 4.077470 -0.664068 -0.259293 0
M  V30 46 H -0.329599 0.075407 2.171558 0
M  V30 47 H -3.700777 0.378376 -1.540928 0
M  V30 48 H -2.875115 -1.121411 -0.847385 0
M  V30 49 H -3.330126 -0.227715 -3.704160 0
M  V30 50 H -2.997444 -1.896135 -2.996787 0
M  V30 51 H -0.649001 -1.204920 -2.679973 0
M  V30 52 H -1.201158 -2.480269 -7.783224 0
M  V30 53 H -0.356073 -6.638415 -5.324050 0
M  V30 54 H -0.380064 -5.789097 -2.952573 0
M  V30 55 H -0.771898 -3.395421 -2.546020 0
M  V30 56 H -1.076060 1.145189 -4.591619 0
M  V30 57 H 0.328112 0.598074 -3.655093 0
M  V30 58 H -2.151687 2.015541 -2.763829 0
M  V30 59 H -0.505561 2.170608 -2.128568 0
M  V30 60 H 1.134436 2.651927 2.682414 0
M  V30 61 H -0.638359 2.632896 2.324769 0
M  V30 62 H -0.237182 2.704525 4.675498 0
M  V30 63 H -1.148575 1.290852 4.180288 0
M  V30 64 H 0.835870 1.329207 5.967419 0
M  V30 65 H 0.753050 -1.612692 3.665757 0
M  V30 66 H -0.330354 -3.682994 4.280072 0
M  V30 67 H -1.702977 -3.758965 6.372775 0
M  V30 END ATOM
M  V30 BEGIN BOND
M  V30 1 1 1 2
M  V30 2 1 2 3
M  V30 3 2 3 4
M  V30 4 1 4 5
M  V30 5 2 5 6
M  V30 6 1 6 7
M  V30 7 2 7 8
M  V30 8 1 8 9
M  V30 9 1 9 10
M  V30 10 1 10 11
M  V30 11 2 11 12
M  V30 12 1 11 13
M  V30 13 1 13 14
M  V30 14 1 14 15
M  V30 15 1 15 16
M  V30 16 1 16 17
M  V30 17 1 17 18
M  V30 18 2 18 19
M  V30 19 1 18 20
M  V30 20 1 20 21
M  V30 21 2 21 22
M  V30 22 1 22 23
M  V30 23 2 23 24
M  V30 24 1 24 25
M  V30 25 2 25 26
M  V30 26 1 16 27
M  V30 27 1 27 28
M  V30 28 1 9 29
M  V30 29 1 29 30
M  V30 30 1 30 31
M  V30 31 1 31 32
M  V30 32 2 32 33
M  V30 33 1 33 34
M  V30 34 2 34 35
M  V30 35 1 35 36
M  V30 36 1 36 37
M  V30 37 2 36 38
M  V30 38 1 38 39
M  V30 39 1 31 2
M  V30 40 1 38 32
M  V30 41 1 8 3
M  V30 42 1 28 13
M  V30 43 1 26 17
M  V30 44 1 26 21
M  V30 45 1 1 40
M  V30 46 1 1 41
M  V30 47 1 2 42 CFG=1
M  V30 48 1 4 43
M  V30 49 1 5 44
M  V30 50 1 6 45
M  V30 51 1 9 46 CFG=1
M  V30 52 1 14 47
M  V30 53 1 14 48
M  V30 54 1 15 49
M  V30 55 1 15 50
M  V30 56 1 16 51
M  V30 57 1 20 52
M  V30 58 1 23 53
M  V30 59 1 24 54
M  V30 60 1 25 55
M  V30 61 1 27 56
M  V30 62 1 27 57
M  V30 63 1 28 58
M  V30 64 1 28 59
M  V30 65 1 29 60
M  V30 66 1 29 61
M  V30 67 1 30 62
M  V30 68 1 30 63
M  V30 69 1 31 64 CFG=1
M  V30 70 1 33 65
M  V30 71 1 34 66
M  V30 72 1 35 67
M  V30 END BOND
M  V30 END CTAB
M  END
>  <Dataset>  (854) 
OralDrugs

>  <Ligand_Instance>  (854) 
nan

>  <PDB_ID>  (854) 
nan

>  <Standardized_SMILES>  (854) 
N[C@@H]1c2cccnc2[C@H](OC(=O)N2CCC(n3c(=O)[nH]c4ncccc43)CC2)CC[C@H]1c1cccc(F)c1F

>  <Name>  (854) 
Rimegepant

>  <Pocket>  (854) 
nan

>  <ATP_Site>  (854) 
nan

>  <Peripheral>  (854) 
nan

>  <Num_H_Atoms_ProtBoundConf>  (854) 
nan

>  <Num_Resolved_Atoms>  (854) 
nan

>  <Num_Not_Resolved_Atoms>  (854) 
nan

$$$$
CHEMBL2107834
     RDKit          3D

  0  0  0  0  0  0  0  0  0  0999 V3000
M  V30 BEGIN CTAB
M  V30 COUNTS 50 53 0 0 0
M  V30 BEGIN ATOM
M  V30 1 C 5.331372 -1.666774 5.665095 0
M  V30 2 O 4.496334 -1.520053 4.560774 0
M  V30 3 C 4.874156 -1.230923 3.291166 0
M  V30 4 O 6.032896 -1.225763 3.762642 0
M  V30 5 N 4.542750 -0.988079 1.953481 0
M  V30 6 C 5.676171 -0.700500 1.107832 0
M  V30 7 C 3.223466 -1.022552 1.433357 0
M  V30 8 C 2.963801 -0.640671 0.142286 0
M  V30 9 N 3.990004 -0.184221 -0.698154 0
M  V30 10 N 1.742750 -0.660517 -0.418758 0
M  V30 11 C 0.654361 -1.075427 0.286993 0
M  V30 12 C -0.669541 -1.089390 -0.323078 0
M  V30 13 N -1.832689 -1.465660 0.210940 0
M  V30 14 N -2.821788 -1.330083 -0.658074 0
M  V30 15 C -4.246273 -1.624445 -0.484799 0
M  V30 16 C -4.969816 -0.415428 0.027678 0
M  V30 17 C -5.777158 0.401168 -0.751755 0
M  V30 18 C -6.412069 1.497441 -0.218148 0
M  V30 19 C -6.246020 1.794570 1.115967 0
M  V30 20 C -5.446174 0.993880 1.909016 0
M  V30 21 C -4.815530 -0.100486 1.366285 0
M  V30 22 F -4.048617 -0.836764 2.202157 0
M  V30 23 C -2.305942 -0.843600 -1.822512 0
M  V30 24 N -2.828009 -0.510496 -3.035077 0
M  V30 25 C -2.094532 -0.041329 -4.040001 0
M  V30 26 C -0.747059 0.134278 -3.902218 0
M  V30 27 C -0.183317 -0.194988 -2.680699 0
M  V30 28 C -0.931842 -0.687061 -1.617006 0
M  V30 29 N 0.898798 -1.447026 1.538589 0
M  V30 30 C 2.107419 -1.435807 2.118994 0
M  V30 31 N 2.172386 -1.874279 3.454253 0
M  V30 32 H 5.983326 -2.546481 5.643443 0
M  V30 33 H 4.720168 -1.698470 6.615956 0
M  V30 34 H 5.974323 -0.756718 5.815963 0
M  V30 35 H 5.687752 0.348597 0.750931 0
M  V30 36 H 6.630146 -0.785373 1.716409 0
M  V30 37 H 5.728442 -1.408781 0.248675 0
M  V30 38 H 4.665079 -0.157035 -1.489929 0
M  V30 39 H 4.680019 -0.118264 -1.471229 0
M  V30 40 H -4.702833 -2.042461 -1.399354 0
M  V30 41 H -4.411096 -2.407458 0.305466 0
M  V30 42 H -5.861740 0.105357 -1.795972 0
M  V30 43 H -7.039708 2.123388 -0.844454 0
M  V30 44 H -6.758300 2.661625 1.505305 0
M  V30 45 H -5.337355 1.264121 2.970348 0
M  V30 46 H -2.526144 0.215836 -4.986658 0
M  V30 47 H -0.098926 0.513035 -4.681974 0
M  V30 48 H 0.872902 -0.065742 -2.549978 0
M  V30 49 H 2.489927 -2.881603 3.342839 0
M  V30 50 H 1.875253 -1.014021 3.976249 0
M  V30 END ATOM
M  V30 BEGIN BOND
M  V30 1 1 1 2
M  V30 2 1 2 3
M  V30 3 2 3 4
M  V30 4 1 3 5
M  V30 5 1 5 6
M  V30 6 1 5 7
M  V30 7 2 7 8
M  V30 8 1 8 9
M  V30 9 1 8 10
M  V30 10 2 10 11
M  V30 11 1 11 12
M  V30 12 2 12 13
M  V30 13 1 13 14
M  V30 14 1 14 15
M  V30 15 1 15 16
M  V30 16 2 16 17
M  V30 17 1 17 18
M  V30 18 2 18 19
M  V30 19 1 19 20
M  V30 20 2 20 21
M  V30 21 1 21 22
M  V30 22 1 14 23
M  V30 23 2 23 24
M  V30 24 1 24 25
M  V30 25 2 25 26
M  V30 26 1 26 27
M  V30 27 2 27 28
M  V30 28 1 11 29
M  V30 29 2 29 30
M  V30 30 1 30 31
M  V30 31 1 30 7
M  V30 32 1 28 12
M  V30 33 1 21 16
M  V30 34 1 28 23
M  V30 35 1 1 32
M  V30 36 1 1 33
M  V30 37 1 1 34
M  V30 38 1 6 35
M  V30 39 1 6 36
M  V30 40 1 6 37
M  V30 41 1 9 38
M  V30 42 1 9 39
M  V30 43 1 15 40
M  V30 44 1 15 41
M  V30 45 1 17 42
M  V30 46 1 18 43
M  V30 47 1 19 44
M  V30 48 1 20 45
M  V30 49 1 25 46
M  V30 50 1 26 47
M  V30 51 1 27 48
M  V30 52 1 31 49
M  V30 53 1 31 50
M  V30 END BOND
M  V30 END CTAB
M  END
>  <Dataset>  (855) 
OralDrugs

>  <Ligand_Instance>  (855) 
nan

>  <PDB_ID>  (855) 
nan

>  <Standardized_SMILES>  (855) 
COC(=O)N(C)c1c(N)nc(-c2nn(Cc3ccccc3F)c3ncccc23)nc1N

>  <Name>  (855) 
Riociguat

>  <Pocket>  (855) 
nan

>  <ATP_Site>  (855) 
nan

>  <Peripheral>  (855) 
nan

>  <Num_H_Atoms_ProtBoundConf>  (855) 
nan

>  <Num_Resolved_Atoms>  (855) 
nan

>  <Num_Not_Resolved_Atoms>  (855) 
nan

$$$$
CHEMBL4216467
     RDKit          3D

  0  0  0  0  0  0  0  0  0  0999 V3000
M  V30 BEGIN CTAB
M  V30 COUNTS 54 57 0 0 0
M  V30 BEGIN ATOM
M  V30 1 C -2.188472 -3.530419 3.416148 0
M  V30 2 C -2.314128 -2.859298 2.073018 0
M  V30 3 N -1.186924 -3.088688 1.194236 0
M  V30 4 C -0.146711 -2.202184 1.217811 0
M  V30 5 O -0.238696 -1.229055 2.012804 0
M  V30 6 C 1.002060 -2.264095 0.454797 0
M  V30 7 C 2.031401 -1.237203 0.591475 0
M  V30 8 C 1.896258 -0.145452 -0.241766 0
M  V30 9 C 2.855883 0.853070 -0.141711 0
M  V30 10 N 2.694817 1.986667 -1.023416 0
M  V30 11 C 1.896878 3.014327 -0.412983 0
M  V30 12 O 1.529242 2.666595 0.759298 0
M  V30 13 N 1.565145 4.248017 -1.034231 0
M  V30 14 C 0.767441 5.221176 -0.365201 0
M  V30 15 C 1.201571 6.250825 0.449109 0
M  V30 16 C 0.286251 7.106903 1.019845 0
M  V30 17 C -1.076541 6.958788 0.794399 0
M  V30 18 C -1.516238 5.936235 -0.015011 0
M  V30 19 C -0.598999 5.071546 -0.592095 0
M  V30 20 C 3.919352 0.805546 0.736298 0
M  V30 21 F 4.835850 1.816585 0.793704 0
M  V30 22 C 4.015500 -0.314623 1.557393 0
M  V30 23 C 3.078423 -1.322179 1.481285 0
M  V30 24 Br 3.188644 -2.863804 2.593713 0
M  V30 25 C 1.112932 -3.326796 -0.419786 0
M  V30 26 C 0.087582 -4.247650 -0.478274 0
M  V30 27 C 0.175707 -5.320421 -1.341524 0
M  V30 28 N -0.829928 -6.222971 -1.393459 0
M  V30 29 C -1.937131 -6.092627 -0.603673 0
M  V30 30 N -2.998593 -7.068084 -0.675434 0
M  V30 31 C -4.174156 -6.916246 0.173268 0
M  V30 32 C -2.043621 -5.026306 0.266060 0
M  V30 33 C -1.022852 -4.102191 0.324291 0
M  V30 34 H -3.203019 -3.528646 3.870713 0
M  V30 35 H -1.556353 -2.913522 4.104978 0
M  V30 36 H -1.866586 -4.582078 3.359214 0
M  V30 37 H -3.242960 -3.184327 1.598793 0
M  V30 38 H -2.349571 -1.750738 2.276445 0
M  V30 39 H 1.075558 -0.042021 -0.963716 0
M  V30 40 H 3.054800 2.173565 -2.004641 0
M  V30 41 H 1.937867 4.404272 -2.009728 0
M  V30 42 H 2.279943 6.299421 0.575655 0
M  V30 43 H 0.685919 7.901362 1.653538 0
M  V30 44 H -1.772037 7.652940 1.261066 0
M  V30 45 H -2.587150 5.848145 -0.170786 0
M  V30 46 H -1.029145 4.283501 -1.223478 0
M  V30 47 H 4.836942 -0.395669 2.265047 0
M  V30 48 H 2.006432 -3.386030 -1.021892 0
M  V30 49 H 1.041832 -5.447719 -1.978331 0
M  V30 50 H -2.885496 -7.861706 -1.343912 0
M  V30 51 H -3.938050 -7.033487 1.253324 0
M  V30 52 H -4.923016 -7.647444 -0.187643 0
M  V30 53 H -4.611850 -5.884566 0.066543 0
M  V30 54 H -2.931048 -4.984691 0.857122 0
M  V30 END ATOM
M  V30 BEGIN BOND
M  V30 1 1 1 2
M  V30 2 1 2 3
M  V30 3 1 3 4
M  V30 4 2 4 5
M  V30 5 1 4 6
M  V30 6 1 6 7
M  V30 7 2 7 8
M  V30 8 1 8 9
M  V30 9 1 9 10
M  V30 10 1 10 11
M  V30 11 2 11 12
M  V30 12 1 11 13
M  V30 13 1 13 14
M  V30 14 2 14 15
M  V30 15 1 15 16
M  V30 16 2 16 17
M  V30 17 1 17 18
M  V30 18 2 18 19
M  V30 19 2 9 20
M  V30 20 1 20 21
M  V30 21 1 20 22
M  V30 22 2 22 23
M  V30 23 1 23 24
M  V30 24 2 6 25
M  V30 25 1 25 26
M  V30 26 2 26 27
M  V30 27 1 27 28
M  V30 28 2 28 29
M  V30 29 1 29 30
M  V30 30 1 30 31
M  V30 31 1 29 32
M  V30 32 2 32 33
M  V30 33 1 33 3
M  V30 34 1 23 7
M  V30 35 1 33 26
M  V30 36 1 19 14
M  V30 37 1 1 34
M  V30 38 1 1 35
M  V30 39 1 1 36
M  V30 40 1 2 37
M  V30 41 1 2 38
M  V30 42 1 8 39
M  V30 43 1 10 40
M  V30 44 1 13 41
M  V30 45 1 15 42
M  V30 46 1 16 43
M  V30 47 1 17 44
M  V30 48 1 18 45
M  V30 49 1 19 46
M  V30 50 1 22 47
M  V30 51 1 25 48
M  V30 52 1 27 49
M  V30 53 1 30 50
M  V30 54 1 31 51
M  V30 55 1 31 52
M  V30 56 1 31 53
M  V30 57 1 32 54
M  V30 END BOND
M  V30 END CTAB
M  END
>  <Dataset>  (856) 
OralDrugs

>  <Ligand_Instance>  (856) 
nan

>  <PDB_ID>  (856) 
nan

>  <Standardized_SMILES>  (856) 
CCn1c(=O)c(-c2cc(NC(=O)Nc3ccccc3)c(F)cc2Br)cc2cnc(NC)cc21

>  <Name>  (856) 
Ripretinib

>  <Pocket>  (856) 
nan

>  <ATP_Site>  (856) 
nan

>  <Peripheral>  (856) 
nan

>  <Num_H_Atoms_ProtBoundConf>  (856) 
nan

>  <Num_Resolved_Atoms>  (856) 
nan

>  <Num_Not_Resolved_Atoms>  (856) 
nan

$$$$
CHEMBL4297528
     RDKit          3D

  0  0  0  0  0  0  0  0  0  0999 V3000
M  V30 BEGIN CTAB
M  V30 COUNTS 53 58 0 0 0
M  V30 BEGIN ATOM
M  V30 1 C 4.200614 -8.543242 2.984513 0
M  V30 2 C 3.365290 -7.471111 2.381912 0
M  V30 3 C 3.516761 -6.102041 2.598292 0
M  V30 4 N 2.553762 -5.524884 1.857243 0
M  V30 5 N 2.250840 -4.226854 1.700080 0
M  V30 6 C 1.241953 -3.834243 0.908869 0
M  V30 7 C 0.982844 -2.402577 0.796612 0
M  V30 8 C 1.743970 -1.471545 1.477719 0
M  V30 9 C 1.474918 -0.119491 1.351986 0
M  V30 10 O 2.225416 0.648400 2.013319 0
M  V30 11 N 0.479261 0.352921 0.576616 0
M  V30 12 C 0.248442 1.677126 0.480131 0
M  V30 13 C -0.760821 2.186283 -0.303634 0
M  V30 14 N -1.012668 3.577889 -0.410223 0
M  V30 15 C -0.271999 4.604986 0.291079 0
M  V30 16 C -1.201266 5.322850 1.235236 0
M  V30 17 N -2.511204 5.562643 0.770071 0
M  V30 18 C -3.049289 4.721922 -0.233095 0
M  V30 19 C -4.353007 4.019177 -0.049887 0
M  V30 20 C -4.320083 5.274777 -0.863765 0
M  V30 21 C -2.045116 4.180259 -1.231787 0
M  V30 22 C -1.506960 1.243651 -0.973357 0
M  V30 23 C -1.267261 -0.114868 -0.872023 0
M  V30 24 C -0.242478 -0.581991 -0.072863 0
M  V30 25 N -0.008725 -1.905557 0.026171 0
M  V30 26 C 0.447830 -4.708515 0.205362 0
M  V30 27 C 0.762058 -6.040787 0.369429 0
M  V30 28 C -0.042485 -7.084289 -0.353935 0
M  V30 29 C 1.811226 -6.458617 1.191641 0
M  V30 30 N 2.333486 -7.650865 1.533369 0
M  V30 31 H 3.600604 -9.446676 3.204285 0
M  V30 32 H 4.701444 -8.229801 3.904730 0
M  V30 33 H 4.975138 -8.884983 2.249398 0
M  V30 34 H 4.237341 -5.595491 3.216599 0
M  V30 35 H 2.538074 -1.876857 2.094469 0
M  V30 36 H 0.898861 2.296357 1.050325 0
M  V30 37 H 0.087557 5.334159 -0.470364 0
M  V30 38 H 0.600435 4.272012 0.838964 0
M  V30 39 H -0.722859 6.337699 1.377676 0
M  V30 40 H -1.143853 4.869951 2.250681 0
M  V30 41 H -3.157867 5.466897 1.611017 0
M  V30 42 H -4.551585 3.071817 -0.592130 0
M  V30 43 H -4.802382 4.060302 0.962579 0
M  V30 44 H -4.443556 5.182395 -1.950894 0
M  V30 45 H -4.800810 6.177844 -0.443660 0
M  V30 46 H -2.576197 3.480487 -1.870685 0
M  V30 47 H -1.609644 5.038806 -1.811187 0
M  V30 48 H -2.323133 1.505934 -1.616631 0
M  V30 49 H -1.861571 -0.845639 -1.404130 0
M  V30 50 H -0.354803 -4.372041 -0.422291 0
M  V30 51 H 0.226093 -8.090485 0.031593 0
M  V30 52 H 0.131889 -7.010462 -1.431923 0
M  V30 53 H -1.108419 -6.887616 -0.095897 0
M  V30 END ATOM
M  V30 BEGIN BOND
M  V30 1 1 1 2
M  V30 2 2 2 3
M  V30 3 1 3 4
M  V30 4 1 4 5
M  V30 5 2 5 6
M  V30 6 1 6 7
M  V30 7 2 7 8
M  V30 8 1 8 9
M  V30 9 2 9 10
M  V30 10 1 9 11
M  V30 11 1 11 12
M  V30 12 2 12 13
M  V30 13 1 13 14
M  V30 14 1 14 15
M  V30 15 1 15 16
M  V30 16 1 16 17
M  V30 17 1 17 18
M  V30 18 1 18 19
M  V30 19 1 19 20
M  V30 20 1 18 21
M  V30 21 1 13 22
M  V30 22 2 22 23
M  V30 23 1 23 24
M  V30 24 2 24 25
M  V30 25 1 6 26
M  V30 26 2 26 27
M  V30 27 1 27 28
M  V30 28 1 27 29
M  V30 29 2 29 30
M  V30 30 1 30 2
M  V30 31 1 29 4
M  V30 32 1 25 7
M  V30 33 1 24 11
M  V30 34 1 21 14
M  V30 35 1 20 18
M  V30 36 1 1 31
M  V30 37 1 1 32
M  V30 38 1 1 33
M  V30 39 1 3 34
M  V30 40 1 8 35
M  V30 41 1 12 36
M  V30 42 1 15 37
M  V30 43 1 15 38
M  V30 44 1 16 39
M  V30 45 1 16 40
M  V30 46 1 17 41
M  V30 47 1 19 42
M  V30 48 1 19 43
M  V30 49 1 20 44
M  V30 50 1 20 45
M  V30 51 1 21 46
M  V30 52 1 21 47
M  V30 53 1 22 48
M  V30 54 1 23 49
M  V30 55 1 26 50
M  V30 56 1 28 51
M  V30 57 1 28 52
M  V30 58 1 28 53
M  V30 END BOND
M  V30 END CTAB
M  END
>  <Dataset>  (857) 
OralDrugs

>  <Ligand_Instance>  (857) 
nan

>  <PDB_ID>  (857) 
nan

>  <Standardized_SMILES>  (857) 
Cc1cn2nc(-c3cc(=O)n4cc(N5CCNC6(CC6)C5)ccc4n3)cc(C)c2n1

>  <Name>  (857) 
Risdiplam

>  <Pocket>  (857) 
nan

>  <ATP_Site>  (857) 
nan

>  <Peripheral>  (857) 
nan

>  <Num_H_Atoms_ProtBoundConf>  (857) 
nan

>  <Num_Resolved_Atoms>  (857) 
nan

>  <Num_Not_Resolved_Atoms>  (857) 
nan

$$$$
CHEMBL1654
     RDKit          3D

  0  0  0  0  0  0  0  0  0  0999 V3000
M  V30 BEGIN CTAB
M  V30 COUNTS 28 28 0 0 0
M  V30 BEGIN ATOM
M  V30 1 O 1.364611 -2.222763 3.365871 0
M  V30 2 P 1.032886 -1.849197 1.916495 0
M  V30 3 O -0.125413 -2.985934 1.430305 0
M  V30 4 O 2.438105 -2.093258 1.057714 0
M  V30 5 C 0.395298 -0.199339 1.926072 0
M  V30 6 O -0.903291 -0.242994 2.451546 0
M  V30 7 C 0.416134 0.551354 0.647452 0
M  V30 8 C -0.331196 -0.020411 -0.470341 0
M  V30 9 C 0.231775 -0.908144 -1.380614 0
M  V30 10 C -0.418012 -1.476947 -2.447782 0
M  V30 11 C -1.745768 -1.146156 -2.643989 0
M  V30 12 N -2.334608 -0.290526 -1.788771 0
M  V30 13 C -1.665838 0.250681 -0.749187 0
M  V30 14 P 1.396873 0.761844 3.121426 0
M  V30 15 O 1.060890 2.239395 3.004060 0
M  V30 16 O 3.019178 0.557261 2.701424 0
M  V30 17 O 1.151760 0.184019 4.672602 0
M  V30 18 H 0.294336 -3.880560 1.627396 0
M  V30 19 H 2.334481 -2.788003 0.339988 0
M  V30 20 H -1.298756 -1.096742 2.143524 0
M  V30 21 H 1.479198 0.793972 0.388889 0
M  V30 22 H -0.022548 1.557570 0.883884 0
M  V30 23 H 1.269743 -1.194734 -1.264434 0
M  V30 24 H 0.080624 -2.160382 -3.117317 0
M  V30 25 H -2.266944 -1.589118 -3.482316 0
M  V30 26 H -2.193898 0.943005 -0.081906 0
M  V30 27 H 3.132098 0.364735 1.724371 0
M  V30 28 H 0.413889 0.688385 5.126249 0
M  V30 END ATOM
M  V30 BEGIN BOND
M  V30 1 2 1 2
M  V30 2 1 2 3
M  V30 3 1 2 4
M  V30 4 1 2 5
M  V30 5 1 5 6
M  V30 6 1 5 7
M  V30 7 1 7 8
M  V30 8 2 8 9
M  V30 9 1 9 10
M  V30 10 2 10 11
M  V30 11 1 11 12
M  V30 12 2 12 13
M  V30 13 1 5 14
M  V30 14 2 14 15
M  V30 15 1 14 16
M  V30 16 1 14 17
M  V30 17 1 13 8
M  V30 18 1 3 18
M  V30 19 1 4 19
M  V30 20 1 6 20
M  V30 21 1 7 21
M  V30 22 1 7 22
M  V30 23 1 9 23
M  V30 24 1 10 24
M  V30 25 1 11 25
M  V30 26 1 13 26
M  V30 27 1 16 27
M  V30 28 1 17 28
M  V30 END BOND
M  V30 END CTAB
M  END
>  <Dataset>  (858) 
OralDrugs

>  <Ligand_Instance>  (858) 
nan

>  <PDB_ID>  (858) 
nan

>  <Standardized_SMILES>  (858) 
O=P(O)(O)C(O)(Cc1cccnc1)P(=O)(O)O

>  <Name>  (858) 
Risedronate Sodium

>  <Pocket>  (858) 
nan

>  <ATP_Site>  (858) 
nan

>  <Peripheral>  (858) 
nan

>  <Num_H_Atoms_ProtBoundConf>  (858) 
nan

>  <Num_Resolved_Atoms>  (858) 
nan

>  <Num_Not_Resolved_Atoms>  (858) 
nan

$$$$
CHEMBL85
     RDKit          3D

  0  0  0  0  0  0  0  0  0  0999 V3000
M  V30 BEGIN CTAB
M  V30 COUNTS 57 61 0 0 0
M  V30 BEGIN ATOM
M  V30 1 C 0.889472 0.589247 -3.421066 0
M  V30 2 C 1.295725 -0.674116 -2.764873 0
M  V30 3 N 0.877520 -1.818164 -3.372608 0
M  V30 4 C 1.198749 -3.023963 -2.850276 0
M  V30 5 N 1.929055 -3.172902 -1.733440 0
M  V30 6 C 2.346445 -2.050146 -1.126650 0
M  V30 7 O 3.043392 -2.014706 -0.065624 0
M  V30 8 C 2.051597 -0.791795 -1.608605 0
M  V30 9 C 2.435673 0.514506 -1.049582 0
M  V30 10 C 1.334881 1.224487 -0.345454 0
M  V30 11 N 0.737113 0.634316 0.756476 0
M  V30 12 C 1.432854 0.464802 1.968956 0
M  V30 13 C 0.488181 0.889587 3.063020 0
M  V30 14 C -0.871944 0.283630 3.010141 0
M  V30 15 C -1.804270 1.297481 3.628473 0
M  V30 16 N -1.501422 2.491075 4.190885 0
M  V30 17 O -2.568050 3.084842 4.611461 0
M  V30 18 C -3.635548 2.363613 4.373533 0
M  V30 19 C -4.981116 2.534805 4.614475 0
M  V30 20 C -5.900424 1.576104 4.240969 0
M  V30 21 F -7.247076 1.702205 4.460580 0
M  V30 22 C -5.458902 0.409056 3.606478 0
M  V30 23 C -4.103601 0.291459 3.391059 0
M  V30 24 C -3.153325 1.217616 3.744223 0
M  V30 25 C -1.343042 -0.199977 1.685056 0
M  V30 26 C -0.275394 -0.328721 0.623522 0
M  V30 27 C 2.292964 -4.439702 -1.147956 0
M  V30 28 C 2.176073 -5.609557 -2.066400 0
M  V30 29 C 1.903833 -5.242419 -3.507311 0
M  V30 30 C 0.734861 -4.273923 -3.515854 0
M  V30 31 H 0.966979 0.412416 -4.533176 0
M  V30 32 H 1.547429 1.445211 -3.217013 0
M  V30 33 H -0.183350 0.773023 -3.252037 0
M  V30 34 H 3.228590 0.299795 -0.272222 0
M  V30 35 H 2.950668 1.187156 -1.765088 0
M  V30 36 H 0.512382 1.518943 -1.063334 0
M  V30 37 H 1.754104 2.228449 -0.039342 0
M  V30 38 H 2.274747 1.197511 2.002616 0
M  V30 39 H 1.881395 -0.515989 2.172486 0
M  V30 40 H 0.382880 1.998155 2.945617 0
M  V30 41 H 0.931235 0.755851 4.065477 0
M  V30 42 H -0.878468 -0.553165 3.769334 0
M  V30 43 H -5.349432 3.423458 5.101865 0
M  V30 44 H -6.154133 -0.359360 3.303628 0
M  V30 45 H -3.783545 -0.610591 2.902987 0
M  V30 46 H -1.748346 -1.235387 1.810000 0
M  V30 47 H -2.118168 0.512283 1.303543 0
M  V30 48 H 0.163595 -1.370696 0.647401 0
M  V30 49 H -0.768415 -0.239606 -0.364594 0
M  V30 50 H 3.338679 -4.345252 -0.780951 0
M  V30 51 H 1.662756 -4.641535 -0.243912 0
M  V30 52 H 1.340104 -6.300939 -1.763658 0
M  V30 53 H 3.096072 -6.256113 -1.993677 0
M  V30 54 H 1.638807 -6.173272 -4.058704 0
M  V30 55 H 2.811326 -4.751424 -3.929952 0
M  V30 56 H -0.093411 -4.739658 -2.912516 0
M  V30 57 H 0.333259 -4.101755 -4.537297 0
M  V30 END ATOM
M  V30 BEGIN BOND
M  V30 1 1 1 2
M  V30 2 1 2 3
M  V30 3 2 3 4
M  V30 4 1 4 5
M  V30 5 1 5 6
M  V30 6 2 6 7
M  V30 7 1 6 8
M  V30 8 1 8 9
M  V30 9 1 9 10
M  V30 10 1 10 11
M  V30 11 1 11 12
M  V30 12 1 12 13
M  V30 13 1 13 14
M  V30 14 1 14 15
M  V30 15 2 15 16
M  V30 16 1 16 17
M  V30 17 1 17 18
M  V30 18 2 18 19
M  V30 19 1 19 20
M  V30 20 1 20 21
M  V30 21 2 20 22
M  V30 22 1 22 23
M  V30 23 2 23 24
M  V30 24 1 14 25
M  V30 25 1 25 26
M  V30 26 1 5 27
M  V30 27 1 27 28
M  V30 28 1 28 29
M  V30 29 1 29 30
M  V30 30 2 8 2
M  V30 31 1 26 11
M  V30 32 1 30 4
M  V30 33 1 24 15
M  V30 34 1 24 18
M  V30 35 1 1 31
M  V30 36 1 1 32
M  V30 37 1 1 33
M  V30 38 1 9 34
M  V30 39 1 9 35
M  V30 40 1 10 36
M  V30 41 1 10 37
M  V30 42 1 12 38
M  V30 43 1 12 39
M  V30 44 1 13 40
M  V30 45 1 13 41
M  V30 46 1 14 42
M  V30 47 1 19 43
M  V30 48 1 22 44
M  V30 49 1 23 45
M  V30 50 1 25 46
M  V30 51 1 25 47
M  V30 52 1 26 48
M  V30 53 1 26 49
M  V30 54 1 27 50
M  V30 55 1 27 51
M  V30 56 1 28 52
M  V30 57 1 28 53
M  V30 58 1 29 54
M  V30 59 1 29 55
M  V30 60 1 30 56
M  V30 61 1 30 57
M  V30 END BOND
M  V30 END CTAB
M  END
>  <Dataset>  (859) 
OralDrugs

>  <Ligand_Instance>  (859) 
nan

>  <PDB_ID>  (859) 
nan

>  <Standardized_SMILES>  (859) 
Cc1nc2n(c(=O)c1CCN1CCC(c3noc4cc(F)ccc34)CC1)CCCC2

>  <Name>  (859) 
Risperidone

>  <Pocket>  (859) 
nan

>  <ATP_Site>  (859) 
nan

>  <Peripheral>  (859) 
nan

>  <Num_H_Atoms_ProtBoundConf>  (859) 
nan

>  <Num_Resolved_Atoms>  (859) 
nan

>  <Num_Not_Resolved_Atoms>  (859) 
nan

$$$$
CHEMBL4085457
     RDKit          3D

  0  0  0  0  0  0  0  0  0  0999 V3000
M  V30 BEGIN CTAB
M  V30 COUNTS 40 42 0 0 0
M  V30 BEGIN ATOM
M  V30 1 C -0.477313 -3.150593 4.136846 0
M  V30 2 C 0.723107 -3.442692 3.732812 0
M  V30 3 C 1.238155 -3.207292 2.403467 0
M  V30 4 O 2.403407 -3.497259 2.030843 0
M  V30 5 N 0.629309 -2.636619 1.255369 0
M  V30 6 C 1.492549 -2.574757 0.089064 0
M  V30 7 C 1.006654 -1.452240 -0.783048 0 CFG=2
M  V30 8 N 1.109191 -0.165868 -0.183922 0
M  V30 9 C 0.726553 1.059789 -0.792907 0
M  V30 10 N 0.214678 1.159280 -2.026703 0
M  V30 11 C -0.146849 2.300854 -2.606463 0
M  V30 12 N -0.000746 3.470241 -1.928217 0
M  V30 13 C 0.507611 3.458005 -0.679326 0
M  V30 14 N 0.749446 4.455731 0.187988 0
M  V30 15 C 1.265419 3.960851 1.324222 0
M  V30 16 C 1.335786 2.591354 1.124730 0
M  V30 17 C 0.864463 2.256010 -0.127542 0
M  V30 18 C -0.398030 -1.767080 -1.160151 0
M  V30 19 C -1.348704 -1.884704 -0.014323 0
M  V30 20 C -0.745743 -2.175971 1.316302 0 CFG=2
M  V30 21 C -0.910404 -0.934794 2.180645 0
M  V30 22 H -1.480066 -2.847025 4.283466 0
M  V30 23 H -0.816290 -3.343314 5.132847 0
M  V30 24 H 1.407184 -3.898302 4.429033 0
M  V30 25 H 1.302759 -3.522766 -0.469322 0
M  V30 26 H 2.538934 -2.436788 0.369418 0
M  V30 27 H 1.627928 -1.477853 -1.702432 0
M  V30 28 H 1.499401 -0.141079 0.780185 0
M  V30 29 H -0.545581 2.192240 -3.618228 0
M  V30 30 H 0.552651 5.461286 -0.023011 0
M  V30 31 H 1.561676 4.518286 2.205706 0
M  V30 32 H 1.710989 1.883269 1.856215 0
M  V30 33 H -0.354003 -2.738393 -1.729032 0
M  V30 34 H -0.727327 -1.017407 -1.910075 0
M  V30 35 H -1.967917 -0.961344 0.006085 0
M  V30 36 H -2.074136 -2.686217 -0.272544 0
M  V30 37 H -1.302236 -2.995402 1.821105 0
M  V30 38 H -1.850062 -0.973001 2.804365 0
M  V30 39 H -0.014504 -0.653535 2.737982 0
M  V30 40 H -1.104461 -0.033344 1.524379 0
M  V30 END ATOM
M  V30 BEGIN BOND
M  V30 1 2 1 2
M  V30 2 1 2 3
M  V30 3 2 3 4
M  V30 4 1 3 5
M  V30 5 1 5 6
M  V30 6 1 6 7
M  V30 7 1 7 8
M  V30 8 1 8 9
M  V30 9 2 9 10
M  V30 10 1 10 11
M  V30 11 2 11 12
M  V30 12 1 12 13
M  V30 13 1 13 14
M  V30 14 1 14 15
M  V30 15 2 15 16
M  V30 16 1 16 17
M  V30 17 1 7 18
M  V30 18 1 18 19
M  V30 19 1 19 20
M  V30 20 1 20 21
M  V30 21 1 20 5
M  V30 22 1 17 9
M  V30 23 2 17 13
M  V30 24 1 1 22
M  V30 25 1 1 23
M  V30 26 1 2 24
M  V30 27 1 6 25
M  V30 28 1 6 26
M  V30 29 1 7 27 CFG=3
M  V30 30 1 8 28
M  V30 31 1 11 29
M  V30 32 1 14 30
M  V30 33 1 15 31
M  V30 34 1 16 32
M  V30 35 1 18 33
M  V30 36 1 18 34
M  V30 37 1 19 35
M  V30 38 1 19 36
M  V30 39 1 20 37 CFG=1
M  V30 40 1 21 38
M  V30 41 1 21 39
M  V30 42 1 21 40
M  V30 END BOND
M  V30 END CTAB
M  END
>  <Dataset>  (860) 
OralDrugs

>  <Ligand_Instance>  (860) 
nan

>  <PDB_ID>  (860) 
nan

>  <Standardized_SMILES>  (860) 
C=CC(=O)N1C[C@H](Nc2ncnc3[nH]ccc23)CC[C@@H]1C

>  <Name>  (860) 
Ritlecitinib

>  <Pocket>  (860) 
nan

>  <ATP_Site>  (860) 
nan

>  <Peripheral>  (860) 
nan

>  <Num_H_Atoms_ProtBoundConf>  (860) 
nan

>  <Num_Resolved_Atoms>  (860) 
nan

>  <Num_Not_Resolved_Atoms>  (860) 
nan

$$$$
CHEMBL83063
     RDKit          3D

  0  0  0  0  0  0  0  0  0  0999 V3000
M  V30 BEGIN CTAB
M  V30 COUNTS 42 43 0 0 0
M  V30 BEGIN ATOM
M  V30 1 C 1.100390 -3.357563 3.782696 0
M  V30 2 C 0.473428 -2.368785 2.755085 0
M  V30 3 N 0.752418 -2.815055 1.508512 0
M  V30 4 C 0.691641 -2.197490 0.270933 0
M  V30 5 C 1.811513 -1.218151 0.061186 0
M  V30 6 C 1.759898 -0.550311 -1.275769 0
M  V30 7 C 2.415799 -1.121698 -2.370163 0
M  V30 8 C 2.455884 -0.625962 -3.648229 0
M  V30 9 C 1.785420 0.548349 -3.876978 0
M  V30 10 O 1.791123 1.099808 -5.157061 0
M  V30 11 C 1.123383 1.163004 -2.859015 0
M  V30 12 C 1.112014 0.625201 -1.590060 0
M  V30 13 C 0.733297 -0.980568 3.261126 0
M  V30 14 O 0.365610 -0.960801 4.671336 0
M  V30 15 C -0.275424 -0.000209 2.706492 0
M  V30 16 C -1.596088 -0.344649 3.028814 0
M  V30 17 C -2.679670 0.434415 2.633859 0
M  V30 18 C -2.479896 1.586930 1.902130 0
M  V30 19 O -3.451438 2.457112 1.440873 0
M  V30 20 C -1.193530 1.933596 1.582114 0
M  V30 21 C -0.137695 1.153690 1.979834 0
M  V30 22 H 1.197244 -4.358890 3.367665 0
M  V30 23 H 0.563801 -3.282531 4.732368 0
M  V30 24 H 2.122484 -2.939404 3.962720 0
M  V30 25 H -0.686708 -2.560698 2.952620 0
M  V30 26 H 1.247246 -3.756059 1.468452 0
M  V30 27 H -0.301068 -1.737338 0.014813 0
M  V30 28 H 0.818602 -2.954851 -0.574065 0
M  V30 29 H 1.892350 -0.516192 0.889744 0
M  V30 30 H 2.799394 -1.786011 0.032965 0
M  V30 31 H 2.949562 -2.050196 -2.202718 0
M  V30 32 H 2.994035 -1.148519 -4.426218 0
M  V30 33 H 1.253630 1.913476 -5.405730 0
M  V30 34 H 0.577552 2.096535 -2.993024 0
M  V30 35 H 0.584349 1.119282 -0.790357 0
M  V30 36 H 1.753269 -0.636772 3.237743 0
M  V30 37 H 1.142613 -1.173778 5.212257 0
M  V30 38 H -1.994876 -1.199550 3.598682 0
M  V30 39 H -3.723536 0.246375 2.835896 0
M  V30 40 H -3.872349 2.271477 0.532329 0
M  V30 41 H -0.893658 2.812349 1.012389 0
M  V30 42 H 0.882878 1.387887 1.765465 0
M  V30 END ATOM
M  V30 BEGIN BOND
M  V30 1 1 1 2
M  V30 2 1 2 3
M  V30 3 1 3 4
M  V30 4 1 4 5
M  V30 5 1 5 6
M  V30 6 2 6 7
M  V30 7 1 7 8
M  V30 8 2 8 9
M  V30 9 1 9 10
M  V30 10 1 9 11
M  V30 11 2 11 12
M  V30 12 1 2 13
M  V30 13 1 13 14
M  V30 14 1 13 15
M  V30 15 2 15 16
M  V30 16 1 16 17
M  V30 17 2 17 18
M  V30 18 1 18 19
M  V30 19 1 18 20
M  V30 20 2 20 21
M  V30 21 1 12 6
M  V30 22 1 21 15
M  V30 23 1 1 22
M  V30 24 1 1 23
M  V30 25 1 1 24
M  V30 26 1 2 25
M  V30 27 1 3 26
M  V30 28 1 4 27
M  V30 29 1 4 28
M  V30 30 1 5 29
M  V30 31 1 5 30
M  V30 32 1 7 31
M  V30 33 1 8 32
M  V30 34 1 10 33
M  V30 35 1 11 34
M  V30 36 1 12 35
M  V30 37 1 13 36
M  V30 38 1 14 37
M  V30 39 1 16 38
M  V30 40 1 17 39
M  V30 41 1 19 40
M  V30 42 1 20 41
M  V30 43 1 21 42
M  V30 END BOND
M  V30 END CTAB
M  END
>  <Dataset>  (861) 
OralDrugs

>  <Ligand_Instance>  (861) 
nan

>  <PDB_ID>  (861) 
nan

>  <Standardized_SMILES>  (861) 
CC(NCCc1ccc(O)cc1)C(O)c1ccc(O)cc1

>  <Name>  (861) 
Ritodrine

>  <Pocket>  (861) 
nan

>  <ATP_Site>  (861) 
nan

>  <Peripheral>  (861) 
nan

>  <Num_H_Atoms_ProtBoundConf>  (861) 
nan

>  <Num_Resolved_Atoms>  (861) 
nan

>  <Num_Not_Resolved_Atoms>  (861) 
nan

$$$$
CHEMBL163
     RDKit          3D

  0  0  0  0  0  0  0  0  0  0999 V3000
M  V30 BEGIN CTAB
M  V30 COUNTS 98 101 0 0 0
M  V30 BEGIN ATOM
M  V30 1 C 5.221880 -1.833208 3.156008 0
M  V30 2 C 5.626199 -0.384728 2.933429 0
M  V30 3 C 6.558276 -0.317014 1.741917 0
M  V30 4 C 4.409302 0.420040 2.749124 0
M  V30 5 N 3.751883 1.399943 3.231352 0
M  V30 6 C 2.622439 1.765526 2.653658 0
M  V30 7 C 1.838977 2.917948 3.243550 0
M  V30 8 N 0.929344 2.400976 4.254695 0
M  V30 9 C 1.562417 2.333285 5.556893 0
M  V30 10 C -0.440516 1.973749 4.132773 0
M  V30 11 O -0.982066 1.513273 5.195941 0
M  V30 12 N -1.232194 2.026001 2.925072 0
M  V30 13 C -2.575499 1.533135 3.046076 0 CFG=2
M  V30 14 C -2.811658 0.569742 1.918986 0
M  V30 15 O -3.865144 -0.114696 2.050184 0
M  V30 16 N -2.014725 0.349981 0.756858 0
M  V30 17 C -2.460192 -0.662139 -0.199827 0 CFG=1
M  V30 18 C -3.538545 -0.101109 -1.049139 0
M  V30 19 C -4.131034 -0.981800 -2.050509 0
M  V30 20 C -3.867507 -1.159568 -3.389255 0
M  V30 21 C -4.522007 -2.070602 -4.188050 0
M  V30 22 C -5.498613 -2.858088 -3.636599 0
M  V30 23 C -5.856253 -2.775739 -2.307040 0
M  V30 24 C -5.147431 -1.830433 -1.567465 0
M  V30 25 C -1.343893 -1.391846 -0.824784 0
M  V30 26 C -0.336102 -0.564306 -1.573186 0 CFG=2
M  V30 27 O -0.873226 0.141562 -2.604236 0
M  V30 28 C 0.876733 -1.363722 -1.920454 0 CFG=2
M  V30 29 C 2.067821 -0.543922 -2.356875 0
M  V30 30 C 1.864471 0.288648 -3.537302 0
M  V30 31 C 1.461822 1.616379 -3.528087 0
M  V30 32 C 1.252618 2.425611 -4.619402 0
M  V30 33 C 1.463740 1.868448 -5.888774 0
M  V30 34 C 1.871568 0.529785 -5.956654 0
M  V30 35 C 2.068100 -0.243059 -4.816622 0
M  V30 36 N 0.596873 -2.357611 -2.942783 0
M  V30 37 C 0.876966 -3.764264 -2.735027 0
M  V30 38 O 1.370510 -4.021386 -1.608637 0
M  V30 39 O 0.637759 -4.733451 -3.661216 0
M  V30 40 C 0.919528 -6.095762 -3.457271 0
M  V30 41 C 0.196893 -6.635861 -2.342694 0
M  V30 42 C 0.430897 -6.803760 -1.000181 0
M  V30 43 N -0.501287 -7.365553 -0.245355 0
M  V30 44 C -1.549637 -7.751950 -0.614408 0
M  V30 45 S -1.501255 -7.351075 -2.492790 0
M  V30 46 C -3.540871 2.712894 2.830095 0
M  V30 47 C -3.297360 3.776177 3.852580 0
M  V30 48 C -4.976612 2.249474 2.915522 0
M  V30 49 C 2.081245 1.095899 1.474887 0
M  V30 50 S 3.388920 -0.146086 1.271060 0
M  V30 51 H 5.717920 -2.264826 4.033719 0
M  V30 52 H 5.504181 -2.440260 2.266521 0
M  V30 53 H 4.108624 -1.922537 3.327174 0
M  V30 54 H 6.142853 -0.008424 3.835150 0
M  V30 55 H 6.605226 0.728467 1.339384 0
M  V30 56 H 7.575892 -0.655499 1.993777 0
M  V30 57 H 6.199312 -0.937168 0.904498 0
M  V30 58 H 1.197052 3.388435 2.472031 0
M  V30 59 H 2.520738 3.654916 3.666358 0
M  V30 60 H 1.846463 3.390341 5.800365 0
M  V30 61 H 2.437397 1.682711 5.608141 0
M  V30 62 H 0.831493 1.993059 6.326609 0
M  V30 63 H -0.747688 2.412816 2.099135 0
M  V30 64 H -2.766310 1.133736 4.024498 0
M  V30 65 H -1.167533 0.966404 0.723444 0
M  V30 66 H -3.019885 -1.404668 0.474912 0
M  V30 67 H -4.366434 0.197256 -0.330927 0
M  V30 68 H -3.304131 0.860917 -1.558642 0
M  V30 69 H -3.119705 -0.539691 -3.813001 0
M  V30 70 H -4.226343 -2.121261 -5.246848 0
M  V30 71 H -6.024698 -3.583711 -4.253411 0
M  V30 72 H -6.611707 -3.383716 -1.870037 0
M  V30 73 H -5.457966 -1.790810 -0.514561 0
M  V30 74 H -0.834477 -1.977283 -0.029441 0
M  V30 75 H -1.797367 -2.182352 -1.484120 0
M  V30 76 H 0.007014 0.220353 -0.826624 0
M  V30 77 H -1.111154 1.079869 -2.393722 0
M  V30 78 H 1.238524 -1.931652 -1.036649 0
M  V30 79 H 2.878135 -1.304467 -2.561497 0
M  V30 80 H 2.474506 0.060569 -1.523699 0
M  V30 81 H 1.318367 1.979474 -2.504013 0
M  V30 82 H 0.938136 3.449604 -4.489448 0
M  V30 83 H 1.317080 2.449193 -6.774234 0
M  V30 84 H 2.028441 0.109466 -6.945470 0
M  V30 85 H 2.388222 -1.283699 -4.958623 0
M  V30 86 H 0.183459 -2.140212 -3.882593 0
M  V30 87 H 0.737385 -6.700847 -4.376187 0
M  V30 88 H 2.026941 -6.248907 -3.263546 0
M  V30 89 H 1.347530 -6.504218 -0.518662 0
M  V30 90 H -2.419239 -8.218558 -0.197000 0
M  V30 91 H -3.295781 3.134222 1.824218 0
M  V30 92 H -2.893324 3.372813 4.775496 0
M  V30 93 H -4.267892 4.310296 4.043447 0
M  V30 94 H -2.611313 4.580379 3.487938 0
M  V30 95 H -5.596417 3.067836 3.386556 0
M  V30 96 H -5.390314 2.151895 1.877415 0
M  V30 97 H -5.117833 1.335666 3.519817 0
M  V30 98 H 1.233476 1.324614 0.991948 0
M  V30 END ATOM
M  V30 BEGIN BOND
M  V30 1 1 1 2
M  V30 2 1 2 3
M  V30 3 1 2 4
M  V30 4 2 4 5
M  V30 5 1 5 6
M  V30 6 1 6 7
M  V30 7 1 7 8
M  V30 8 1 8 9
M  V30 9 1 8 10
M  V30 10 2 10 11
M  V30 11 1 10 12
M  V30 12 1 12 13
M  V30 13 1 13 14
M  V30 14 2 14 15
M  V30 15 1 14 16
M  V30 16 1 16 17
M  V30 17 1 17 18
M  V30 18 1 18 19
M  V30 19 2 19 20
M  V30 20 1 20 21
M  V30 21 2 21 22
M  V30 22 1 22 23
M  V30 23 2 23 24
M  V30 24 1 17 25
M  V30 25 1 25 26
M  V30 26 1 26 27
M  V30 27 1 26 28
M  V30 28 1 28 29
M  V30 29 1 29 30
M  V30 30 2 30 31
M  V30 31 1 31 32
M  V30 32 2 32 33
M  V30 33 1 33 34
M  V30 34 2 34 35
M  V30 35 1 28 36
M  V30 36 1 36 37
M  V30 37 2 37 38
M  V30 38 1 37 39
M  V30 39 1 39 40
M  V30 40 1 40 41
M  V30 41 2 41 42
M  V30 42 1 42 43
M  V30 43 2 43 44
M  V30 44 1 44 45
M  V30 45 1 13 46
M  V30 46 1 46 47
M  V30 47 1 46 48
M  V30 48 2 6 49
M  V30 49 1 49 50
M  V30 50 1 50 4
M  V30 51 1 24 19
M  V30 52 1 35 30
M  V30 53 1 45 41
M  V30 54 1 1 51
M  V30 55 1 1 52
M  V30 56 1 1 53
M  V30 57 1 2 54
M  V30 58 1 3 55
M  V30 59 1 3 56
M  V30 60 1 3 57
M  V30 61 1 7 58
M  V30 62 1 7 59
M  V30 63 1 9 60
M  V30 64 1 9 61
M  V30 65 1 9 62
M  V30 66 1 12 63
M  V30 67 1 13 64 CFG=1
M  V30 68 1 16 65
M  V30 69 1 17 66 CFG=1
M  V30 70 1 18 67
M  V30 71 1 18 68
M  V30 72 1 20 69
M  V30 73 1 21 70
M  V30 74 1 22 71
M  V30 75 1 23 72
M  V30 76 1 24 73
M  V30 77 1 25 74
M  V30 78 1 25 75
M  V30 79 1 26 76 CFG=1
M  V30 80 1 27 77
M  V30 81 1 28 78 CFG=1
M  V30 82 1 29 79
M  V30 83 1 29 80
M  V30 84 1 31 81
M  V30 85 1 32 82
M  V30 86 1 33 83
M  V30 87 1 34 84
M  V30 88 1 35 85
M  V30 89 1 36 86
M  V30 90 1 40 87
M  V30 91 1 40 88
M  V30 92 1 42 89
M  V30 93 1 44 90
M  V30 94 1 46 91
M  V30 95 1 47 92
M  V30 96 1 47 93
M  V30 97 1 47 94
M  V30 98 1 48 95
M  V30 99 1 48 96
M  V30 100 1 48 97
M  V30 101 1 49 98
M  V30 END BOND
M  V30 END CTAB
M  END
>  <Dataset>  (862) 
OralDrugs

>  <Ligand_Instance>  (862) 
nan

>  <PDB_ID>  (862) 
nan

>  <Standardized_SMILES>  (862) 
CC(C)c1nc(CN(C)C(=O)N[C@H](C(=O)N[C@@H](Cc2ccccc2)C[C@H](O)[C@H](Cc2ccccc2)NC(=O)OCc2cncs2)C(C)C)cs1

>  <Name>  (862) 
Ritonavir

>  <Pocket>  (862) 
nan

>  <ATP_Site>  (862) 
nan

>  <Peripheral>  (862) 
nan

>  <Num_H_Atoms_ProtBoundConf>  (862) 
nan

>  <Num_Resolved_Atoms>  (862) 
nan

>  <Num_Not_Resolved_Atoms>  (862) 
nan

$$$$
CHEMBL198362
     RDKit          3D

  0  0  0  0  0  0  0  0  0  0999 V3000
M  V30 BEGIN CTAB
M  V30 COUNTS 47 50 0 0 0
M  V30 BEGIN ATOM
M  V30 1 O -3.656779 -4.071191 3.082859 0
M  V30 2 C -2.930915 -4.854722 2.426077 0
M  V30 3 N -1.617025 -4.517576 2.009470 0
M  V30 4 C -0.992786 -3.242803 2.299362 0
M  V30 5 C -1.833351 -2.160626 1.664562 0 CFG=1
M  V30 6 C -1.180382 -0.800879 1.785161 0
M  V30 7 N -0.520946 -0.610436 0.486003 0
M  V30 8 C 0.394362 0.463692 0.307002 0
M  V30 9 C 1.738222 0.292940 0.568412 0
M  V30 10 C 2.570110 1.375112 0.373930 0
M  V30 11 C 2.189831 2.623232 -0.060062 0
M  V30 12 N 3.028594 3.727632 -0.264470 0
M  V30 13 C 2.417126 4.994032 -0.699170 0
M  V30 14 C 3.493090 6.067017 -0.479622 0
M  V30 15 O 4.160703 5.879337 0.728817 0
M  V30 16 C 5.112302 4.896487 0.543596 0
M  V30 17 C 4.435317 3.699085 -0.072388 0
M  V30 18 O 5.047850 2.661449 -0.432128 0
M  V30 19 C 0.830980 2.709423 -0.298377 0
M  V30 20 C -0.075672 1.683825 -0.132492 0
M  V30 21 C -0.953011 -1.603068 -0.403455 0
M  V30 22 O -0.520602 -1.755400 -1.572333 0
M  V30 23 O -1.919116 -2.343909 0.265067 0
M  V30 24 C -3.432149 -6.198438 2.050465 0
M  V30 25 C -4.644739 -6.685671 2.357573 0
M  V30 26 C -4.978313 -7.947912 1.945751 0
M  V30 27 C -3.963127 -8.656384 1.197532 0
M  V30 28 Cl -4.045069 -10.271350 0.522325 0
M  V30 29 S -2.562260 -7.410357 1.143260 0
M  V30 30 H -1.067473 -5.224343 1.464043 0
M  V30 31 H -1.022475 -3.050551 3.412340 0
M  V30 32 H 0.048047 -3.237191 1.929723 0
M  V30 33 H -2.802059 -2.128921 2.179874 0
M  V30 34 H -1.910197 0.017782 1.891306 0
M  V30 35 H -0.409831 -0.741753 2.558831 0
M  V30 36 H 2.105424 -0.649886 0.908631 0
M  V30 37 H 3.611953 1.195622 0.594241 0
M  V30 38 H 1.563398 5.286232 -0.073796 0
M  V30 39 H 2.206519 4.981033 -1.778334 0
M  V30 40 H 3.032947 7.073497 -0.427145 0
M  V30 41 H 4.176122 6.002088 -1.337569 0
M  V30 42 H 5.534827 4.538395 1.510869 0
M  V30 43 H 5.953363 5.237758 -0.091271 0
M  V30 44 H 0.383523 3.640719 -0.647697 0
M  V30 45 H -1.127435 1.802058 -0.332400 0
M  V30 46 H -5.383601 -6.131122 2.919254 0
M  V30 47 H -5.895211 -8.498225 2.097972 0
M  V30 END ATOM
M  V30 BEGIN BOND
M  V30 1 2 1 2
M  V30 2 1 2 3
M  V30 3 1 3 4
M  V30 4 1 4 5
M  V30 5 1 5 6
M  V30 6 1 6 7
M  V30 7 1 7 8
M  V30 8 2 8 9
M  V30 9 1 9 10
M  V30 10 2 10 11
M  V30 11 1 11 12
M  V30 12 1 12 13
M  V30 13 1 13 14
M  V30 14 1 14 15
M  V30 15 1 15 16
M  V30 16 1 16 17
M  V30 17 2 17 18
M  V30 18 1 11 19
M  V30 19 2 19 20
M  V30 20 1 7 21
M  V30 21 2 21 22
M  V30 22 1 21 23
M  V30 23 1 2 24
M  V30 24 2 24 25
M  V30 25 1 25 26
M  V30 26 2 26 27
M  V30 27 1 27 28
M  V30 28 1 27 29
M  V30 29 1 23 5
M  V30 30 1 29 24
M  V30 31 1 20 8
M  V30 32 1 17 12
M  V30 33 1 3 30
M  V30 34 1 4 31
M  V30 35 1 4 32
M  V30 36 1 5 33 CFG=1
M  V30 37 1 6 34
M  V30 38 1 6 35
M  V30 39 1 9 36
M  V30 40 1 10 37
M  V30 41 1 13 38
M  V30 42 1 13 39
M  V30 43 1 14 40
M  V30 44 1 14 41
M  V30 45 1 16 42
M  V30 46 1 16 43
M  V30 47 1 19 44
M  V30 48 1 20 45
M  V30 49 1 25 46
M  V30 50 1 26 47
M  V30 END BOND
M  V30 END CTAB
M  END
>  <Dataset>  (863) 
OralDrugs

>  <Ligand_Instance>  (863) 
nan

>  <PDB_ID>  (863) 
nan

>  <Standardized_SMILES>  (863) 
O=C(NC[C@H]1CN(c2ccc(N3CCOCC3=O)cc2)C(=O)O1)c1ccc(Cl)s1

>  <Name>  (863) 
Rivaroxaban

>  <Pocket>  (863) 
nan

>  <ATP_Site>  (863) 
nan

>  <Peripheral>  (863) 
nan

>  <Num_H_Atoms_ProtBoundConf>  (863) 
nan

>  <Num_Resolved_Atoms>  (863) 
nan

>  <Num_Not_Resolved_Atoms>  (863) 
nan

$$$$
CHEMBL636
     RDKit          3D

  0  0  0  0  0  0  0  0  0  0999 V3000
M  V30 BEGIN CTAB
M  V30 COUNTS 40 40 0 0 0
M  V30 BEGIN ATOM
M  V30 1 C -1.435750 -5.613596 0.449613 0
M  V30 2 C -1.294359 -4.736544 1.659641 0
M  V30 3 N 0.080820 -4.278375 1.721427 0
M  V30 4 C 1.047497 -5.097910 2.465919 0
M  V30 5 C 0.558378 -3.086429 1.108599 0
M  V30 6 O 1.765642 -2.684770 1.163241 0
M  V30 7 O -0.368832 -2.334843 0.415604 0
M  V30 8 C -0.019022 -1.135264 -0.233796 0
M  V30 9 C 0.415268 -1.016465 -1.539824 0
M  V30 10 C 0.723617 0.230322 -2.043221 0
M  V30 11 C 0.596859 1.349888 -1.241122 0
M  V30 12 C 0.155994 1.214734 0.079372 0
M  V30 13 C 0.050877 2.462540 0.861047 0 CFG=2
M  V30 14 C -1.155960 3.278299 0.493658 0
M  V30 15 N 1.206619 3.319286 0.692044 0
M  V30 16 C 2.456627 2.699862 1.001520 0
M  V30 17 C 1.007561 4.565372 1.389422 0
M  V30 18 C -0.142392 -0.032329 0.551709 0
M  V30 19 H -0.494888 -5.656632 -0.144843 0
M  V30 20 H -2.253202 -5.302523 -0.231129 0
M  V30 21 H -1.599872 -6.664747 0.812323 0
M  V30 22 H -1.552670 -5.291037 2.599993 0
M  V30 23 H -1.979023 -3.862996 1.640636 0
M  V30 24 H 0.546306 -5.729974 3.215823 0
M  V30 25 H 1.784177 -4.476442 3.010984 0
M  V30 26 H 1.567838 -5.802044 1.759815 0
M  V30 27 H 0.483930 -1.946140 -2.092138 0
M  V30 28 H 1.062720 0.302721 -3.070398 0
M  V30 29 H 0.843323 2.323836 -1.651744 0
M  V30 30 H -0.023789 2.219894 1.942549 0
M  V30 31 H -0.959678 3.986966 -0.338150 0
M  V30 32 H -2.047390 2.672075 0.219110 0
M  V30 33 H -1.432512 3.885052 1.374507 0
M  V30 34 H 2.285246 1.963219 1.806883 0
M  V30 35 H 3.098640 3.498340 1.460439 0
M  V30 36 H 2.988595 2.294731 0.135280 0
M  V30 37 H 0.349644 4.397078 2.266566 0
M  V30 38 H 1.952410 5.039792 1.695766 0
M  V30 39 H 0.412237 5.230962 0.704977 0
M  V30 40 H -0.478008 -0.034354 1.593727 0
M  V30 END ATOM
M  V30 BEGIN BOND
M  V30 1 1 1 2
M  V30 2 1 2 3
M  V30 3 1 3 4
M  V30 4 1 3 5
M  V30 5 2 5 6
M  V30 6 1 5 7
M  V30 7 1 7 8
M  V30 8 2 8 9
M  V30 9 1 9 10
M  V30 10 2 10 11
M  V30 11 1 11 12
M  V30 12 1 12 13
M  V30 13 1 13 14
M  V30 14 1 13 15
M  V30 15 1 15 16
M  V30 16 1 15 17
M  V30 17 2 12 18
M  V30 18 1 18 8
M  V30 19 1 1 19
M  V30 20 1 1 20
M  V30 21 1 1 21
M  V30 22 1 2 22
M  V30 23 1 2 23
M  V30 24 1 4 24
M  V30 25 1 4 25
M  V30 26 1 4 26
M  V30 27 1 9 27
M  V30 28 1 10 28
M  V30 29 1 11 29
M  V30 30 1 13 30 CFG=1
M  V30 31 1 14 31
M  V30 32 1 14 32
M  V30 33 1 14 33
M  V30 34 1 16 34
M  V30 35 1 16 35
M  V30 36 1 16 36
M  V30 37 1 17 37
M  V30 38 1 17 38
M  V30 39 1 17 39
M  V30 40 1 18 40
M  V30 END BOND
M  V30 END CTAB
M  END
>  <Dataset>  (864) 
OralDrugs

>  <Ligand_Instance>  (864) 
nan

>  <PDB_ID>  (864) 
nan

>  <Standardized_SMILES>  (864) 
CCN(C)C(=O)Oc1cccc([C@H](C)N(C)C)c1

>  <Name>  (864) 
Rivastigmine

>  <Pocket>  (864) 
nan

>  <ATP_Site>  (864) 
nan

>  <Peripheral>  (864) 
nan

>  <Num_H_Atoms_ProtBoundConf>  (864) 
nan

>  <Num_Resolved_Atoms>  (864) 
nan

>  <Num_Not_Resolved_Atoms>  (864) 
nan

$$$$
CHEMBL905
     RDKit          3D

  0  0  0  0  0  0  0  0  0  0999 V3000
M  V30 BEGIN CTAB
M  V30 COUNTS 39 41 0 0 0
M  V30 BEGIN ATOM
M  V30 1 C -1.256708 -2.320202 3.021015 0
M  V30 2 N -1.084436 -3.169906 1.878716 0
M  V30 3 C -1.913683 -4.335955 1.849277 0
M  V30 4 C 0.283237 -3.406553 1.534404 0
M  V30 5 C 1.033846 -2.236109 1.006394 0
M  V30 6 C 0.413506 -1.682365 -0.247800 0
M  V30 7 C -0.399611 -2.246453 -1.192897 0
M  V30 8 N -0.710874 -1.337475 -2.128172 0
M  V30 9 C -0.119401 -0.159137 -1.834747 0
M  V30 10 C -0.088441 1.089696 -2.397066 0
M  V30 11 C 0.629774 2.117216 -1.804551 0
M  V30 12 C 1.324018 1.918293 -0.654989 0
M  V30 13 C 2.047015 3.020975 0.096933 0
M  V30 14 N 1.449080 2.991038 1.434295 0
M  V30 15 C 2.021499 2.274313 2.445432 0
M  V30 16 N 1.246349 2.371400 3.543364 0
M  V30 17 C 0.182677 3.153921 3.214085 0
M  V30 18 N 0.353468 3.507528 1.915230 0
M  V30 19 C 1.303251 0.667978 -0.080454 0
M  V30 20 C 0.580418 -0.379740 -0.662310 0
M  V30 21 H -0.302912 -2.362535 3.622681 0
M  V30 22 H -2.016561 -2.784310 3.677055 0
M  V30 23 H -1.523431 -1.290412 2.779383 0
M  V30 24 H -2.040678 -4.768389 0.843567 0
M  V30 25 H -2.887716 -4.118682 2.354773 0
M  V30 26 H -1.444848 -5.121639 2.485457 0
M  V30 27 H 0.412826 -4.239884 0.805393 0
M  V30 28 H 0.810171 -3.741795 2.468158 0
M  V30 29 H 1.107976 -1.392998 1.734595 0
M  V30 30 H 2.066357 -2.550269 0.791703 0
M  V30 31 H -0.718983 -3.302152 -1.134004 0
M  V30 32 H -1.326291 -1.477257 -2.976901 0
M  V30 33 H -0.641860 1.245920 -3.315263 0
M  V30 34 H 0.653020 3.100000 -2.260516 0
M  V30 35 H 3.105144 2.734528 0.116885 0
M  V30 36 H 1.873480 3.998580 -0.373184 0
M  V30 37 H 2.950310 1.685150 2.499982 0
M  V30 38 H -0.634464 3.427565 3.875992 0
M  V30 39 H 1.850442 0.479312 0.814198 0
M  V30 END ATOM
M  V30 BEGIN BOND
M  V30 1 1 1 2
M  V30 2 1 2 3
M  V30 3 1 2 4
M  V30 4 1 4 5
M  V30 5 1 5 6
M  V30 6 2 6 7
M  V30 7 1 7 8
M  V30 8 1 8 9
M  V30 9 2 9 10
M  V30 10 1 10 11
M  V30 11 2 11 12
M  V30 12 1 12 13
M  V30 13 1 13 14
M  V30 14 1 14 15
M  V30 15 2 15 16
M  V30 16 1 16 17
M  V30 17 2 17 18
M  V30 18 1 12 19
M  V30 19 2 19 20
M  V30 20 1 20 6
M  V30 21 1 20 9
M  V30 22 1 18 14
M  V30 23 1 1 21
M  V30 24 1 1 22
M  V30 25 1 1 23
M  V30 26 1 3 24
M  V30 27 1 3 25
M  V30 28 1 3 26
M  V30 29 1 4 27
M  V30 30 1 4 28
M  V30 31 1 5 29
M  V30 32 1 5 30
M  V30 33 1 7 31
M  V30 34 1 8 32
M  V30 35 1 10 33
M  V30 36 1 11 34
M  V30 37 1 13 35
M  V30 38 1 13 36
M  V30 39 1 15 37
M  V30 40 1 17 38
M  V30 41 1 19 39
M  V30 END BOND
M  V30 END CTAB
M  END
>  <Dataset>  (865) 
OralDrugs

>  <Ligand_Instance>  (865) 
nan

>  <PDB_ID>  (865) 
nan

>  <Standardized_SMILES>  (865) 
CN(C)CCc1c[nH]c2ccc(Cn3cncn3)cc12

>  <Name>  (865) 
Rizatriptan

>  <Pocket>  (865) 
nan

>  <ATP_Site>  (865) 
nan

>  <Peripheral>  (865) 
nan

>  <Num_H_Atoms_ProtBoundConf>  (865) 
nan

>  <Num_Resolved_Atoms>  (865) 
nan

>  <Num_Not_Resolved_Atoms>  (865) 
nan

$$$$
CHEMBL193240
     RDKit          3D

  0  0  0  0  0  0  0  0  0  0999 V3000
M  V30 BEGIN CTAB
M  V30 COUNTS 40 42 0 0 0
M  V30 BEGIN ATOM
M  V30 1 O 3.502945 -0.018696 0.290967 0
M  V30 2 C 2.303650 -0.405683 0.237420 0
M  V30 3 N 2.067101 -1.708358 -0.269717 0
M  V30 4 C 3.286469 -2.376746 -0.645405 0
M  V30 5 C 3.904924 -3.129541 0.332615 0
M  V30 6 Cl 3.268891 -3.291162 1.963448 0
M  V30 7 C 5.070566 -3.760142 -0.047086 0
M  V30 8 N 5.602770 -3.672421 -1.280222 0
M  V30 9 C 4.997890 -2.937381 -2.233393 0
M  V30 10 C 3.817874 -2.272143 -1.924594 0
M  V30 11 Cl 2.934283 -1.280888 -3.082385 0
M  V30 12 C 1.271708 0.492646 0.689155 0
M  V30 13 C 1.578437 1.755415 1.144763 0
M  V30 14 C 0.599510 2.624207 1.578784 0
M  V30 15 C -0.728439 2.248542 1.569057 0
M  V30 16 O -1.697176 3.125905 2.005494 0
M  V30 17 C -1.528285 4.416059 2.484667 0
M  V30 18 F -2.006905 4.575278 3.781134 0
M  V30 19 F -2.230889 5.360790 1.737421 0
M  V30 20 C -1.120746 0.972383 1.117486 0
M  V30 21 O -2.411701 0.744910 1.164129 0
M  V30 22 C -3.390854 -0.143447 0.943084 0
M  V30 23 C -3.458909 -1.422408 1.690588 0
M  V30 24 C -2.478166 -2.493950 1.720157 0
M  V30 25 C -3.663625 -2.687348 0.843278 0
M  V30 26 C -0.070342 0.181806 0.705624 0
M  V30 27 H 1.092824 -2.072150 -0.336379 0
M  V30 28 H 5.587497 -4.362120 0.694308 0
M  V30 29 H 5.319639 -2.784612 -3.259498 0
M  V30 30 H 2.630683 2.023908 1.142009 0
M  V30 31 H 0.988318 3.570766 1.903441 0
M  V30 32 H -0.486695 4.750545 2.502617 0
M  V30 33 H -3.416961 -0.349039 -0.190284 0
M  V30 34 H -4.403590 0.370646 1.072645 0
M  V30 35 H -4.179986 -1.378443 2.558133 0
M  V30 36 H -2.508890 -3.160268 2.640216 0
M  V30 37 H -1.513259 -2.554482 1.233722 0
M  V30 38 H -4.487666 -3.379788 1.123149 0
M  V30 39 H -3.504570 -2.625173 -0.236032 0
M  V30 40 H -0.334845 -0.795860 0.341312 0
M  V30 END ATOM
M  V30 BEGIN BOND
M  V30 1 2 1 2
M  V30 2 1 2 3
M  V30 3 1 3 4
M  V30 4 2 4 5
M  V30 5 1 5 6
M  V30 6 1 5 7
M  V30 7 2 7 8
M  V30 8 1 8 9
M  V30 9 2 9 10
M  V30 10 1 10 11
M  V30 11 1 2 12
M  V30 12 2 12 13
M  V30 13 1 13 14
M  V30 14 2 14 15
M  V30 15 1 15 16
M  V30 16 1 16 17
M  V30 17 1 17 18
M  V30 18 1 17 19
M  V30 19 1 15 20
M  V30 20 1 20 21
M  V30 21 1 21 22
M  V30 22 1 22 23
M  V30 23 1 23 24
M  V30 24 1 24 25
M  V30 25 2 20 26
M  V30 26 1 10 4
M  V30 27 1 26 12
M  V30 28 1 25 23
M  V30 29 1 3 27
M  V30 30 1 7 28
M  V30 31 1 9 29
M  V30 32 1 13 30
M  V30 33 1 14 31
M  V30 34 1 17 32
M  V30 35 1 22 33
M  V30 36 1 22 34
M  V30 37 1 23 35
M  V30 38 1 24 36
M  V30 39 1 24 37
M  V30 40 1 25 38
M  V30 41 1 25 39
M  V30 42 1 26 40
M  V30 END BOND
M  V30 END CTAB
M  END
>  <Dataset>  (866) 
OralDrugs

>  <Ligand_Instance>  (866) 
nan

>  <PDB_ID>  (866) 
nan

>  <Standardized_SMILES>  (866) 
O=C(Nc1c(Cl)cncc1Cl)c1ccc(OC(F)F)c(OCC2CC2)c1

>  <Name>  (866) 
Roflumilast

>  <Pocket>  (866) 
nan

>  <ATP_Site>  (866) 
nan

>  <Peripheral>  (866) 
nan

>  <Num_H_Atoms_ProtBoundConf>  (866) 
nan

>  <Num_Resolved_Atoms>  (866) 
nan

>  <Num_Not_Resolved_Atoms>  (866) 
nan

$$$$
CHEMBL3707331
     RDKit          3D

  0  0  0  0  0  0  0  0  0  0999 V3000
M  V30 BEGIN CTAB
M  V30 COUNTS 61 64 0 0 0
M  V30 BEGIN ATOM
M  V30 1 C 1.700022 -2.706505 2.430619 0
M  V30 2 C 0.781698 -1.518018 2.301347 0 CFG=1
M  V30 3 O 0.656083 -1.080762 0.990748 0
M  V30 4 C 1.061810 0.235447 0.831358 0
M  V30 5 C 0.942239 0.724804 -0.580412 0 CFG=1
M  V30 6 C 1.431532 2.141969 -0.637383 0
M  V30 7 C 1.888354 2.782516 0.516291 0
M  V30 8 C 2.347753 4.078254 0.518885 0
M  V30 9 C 2.378799 4.809591 -0.624708 0
M  V30 10 C 1.936478 4.213471 -1.784651 0
M  V30 11 C 1.478257 2.914555 -1.775741 0
M  V30 12 C 1.849607 -0.137616 -1.428005 0
M  V30 13 C 1.257954 -1.483106 -1.732786 0
M  V30 14 C -0.140006 -1.456734 -2.248833 0 CFG=1
M  V30 15 C -0.238727 -2.096138 -3.620068 0
M  V30 16 C -0.397849 -3.586262 -3.308235 0
M  V30 17 C -1.025601 -3.532737 -1.961708 0
M  V30 18 O -1.443863 -4.535732 -1.294004 0
M  V30 19 N -1.106059 -2.182698 -1.492402 0
M  V30 20 C -0.568814 0.005575 -2.342743 0
M  V30 21 N -0.368748 0.693637 -1.118121 0
M  V30 22 C -0.555141 -1.937674 2.783688 0
M  V30 23 C -1.461002 -2.733569 2.120309 0
M  V30 24 C -2.679131 -3.041431 2.696460 0
M  V30 25 C -3.636756 -3.899056 1.963891 0
M  V30 26 F -4.328187 -3.197387 0.975846 0
M  V30 27 F -3.001195 -4.946769 1.333928 0
M  V30 28 F -4.565855 -4.455957 2.851643 0
M  V30 29 C -3.053741 -2.581901 3.941177 0
M  V30 30 C -2.169925 -1.781026 4.635542 0
M  V30 31 C -2.538965 -1.273297 5.967929 0
M  V30 32 F -2.145922 -2.203550 6.915066 0
M  V30 33 F -3.915671 -1.180752 6.058926 0
M  V30 34 F -1.944414 -0.078529 6.300524 0
M  V30 35 C -0.955286 -1.482770 4.044145 0
M  V30 36 H 1.495416 -3.504715 1.689630 0
M  V30 37 H 1.510816 -3.185881 3.423218 0
M  V30 38 H 2.757506 -2.379478 2.442295 0
M  V30 39 H 1.176579 -0.691714 2.890410 0
M  V30 40 H 0.427340 0.921645 1.459864 0
M  V30 41 H 2.114442 0.311528 1.148766 0
M  V30 42 H 1.909034 2.305800 1.465536 0
M  V30 43 H 2.702822 4.576889 1.414360 0
M  V30 44 H 2.714912 5.829203 -0.750229 0
M  V30 45 H 1.928091 4.727686 -2.740176 0
M  V30 46 H 1.134363 2.455065 -2.688679 0
M  V30 47 H 2.146688 0.365913 -2.370587 0
M  V30 48 H 2.781623 -0.310211 -0.846654 0
M  V30 49 H 1.914936 -1.906121 -2.550944 0
M  V30 50 H 1.394986 -2.221461 -0.903267 0
M  V30 51 H 0.741664 -1.962844 -4.112181 0
M  V30 52 H -1.083315 -1.716411 -4.192591 0
M  V30 53 H -1.013438 -4.092611 -4.064900 0
M  V30 54 H 0.578121 -4.104591 -3.231012 0
M  V30 55 H -1.716349 -1.757150 -0.760728 0
M  V30 56 H 0.009485 0.422149 -3.163720 0
M  V30 57 H -1.661374 0.073133 -2.578510 0
M  V30 58 H -0.991718 1.478072 -0.911012 0
M  V30 59 H -1.153612 -3.088668 1.146928 0
M  V30 60 H -4.015174 -2.840845 4.365049 0
M  V30 61 H -0.301387 -0.854841 4.626040 0
M  V30 END ATOM
M  V30 BEGIN BOND
M  V30 1 1 1 2
M  V30 2 1 2 3
M  V30 3 1 3 4
M  V30 4 1 5 4 CFG=1
M  V30 5 1 5 6
M  V30 6 2 6 7
M  V30 7 1 7 8
M  V30 8 2 8 9
M  V30 9 1 9 10
M  V30 10 2 10 11
M  V30 11 1 5 12
M  V30 12 1 12 13
M  V30 13 1 13 14
M  V30 14 1 14 15
M  V30 15 1 15 16
M  V30 16 1 16 17
M  V30 17 2 17 18
M  V30 18 1 17 19
M  V30 19 1 14 20
M  V30 20 1 20 21
M  V30 21 1 2 22
M  V30 22 2 22 23
M  V30 23 1 23 24
M  V30 24 1 24 25
M  V30 25 1 25 26
M  V30 26 1 25 27
M  V30 27 1 25 28
M  V30 28 2 24 29
M  V30 29 1 29 30
M  V30 30 1 30 31
M  V30 31 1 31 32
M  V30 32 1 31 33
M  V30 33 1 31 34
M  V30 34 2 30 35
M  V30 35 1 21 5
M  V30 36 1 35 22
M  V30 37 1 11 6
M  V30 38 1 14 19 CFG=1
M  V30 39 1 1 36
M  V30 40 1 1 37
M  V30 41 1 1 38
M  V30 42 1 2 39 CFG=1
M  V30 43 1 4 40
M  V30 44 1 4 41
M  V30 45 1 7 42
M  V30 46 1 8 43
M  V30 47 1 9 44
M  V30 48 1 10 45
M  V30 49 1 11 46
M  V30 50 1 12 47
M  V30 51 1 12 48
M  V30 52 1 13 49
M  V30 53 1 13 50
M  V30 54 1 15 51
M  V30 55 1 15 52
M  V30 56 1 16 53
M  V30 57 1 16 54
M  V30 58 1 19 55
M  V30 59 1 20 56
M  V30 60 1 20 57
M  V30 61 1 21 58
M  V30 62 1 23 59
M  V30 63 1 29 60
M  V30 64 1 35 61
M  V30 END BOND
M  V30 END CTAB
M  END
>  <Dataset>  (867) 
OralDrugs

>  <Ligand_Instance>  (867) 
nan

>  <PDB_ID>  (867) 
nan

>  <Standardized_SMILES>  (867) 
C[C@@H](OC[C@@]1(c2ccccc2)CC[C@]2(CCC(=O)N2)CN1)c1cc(C(F)(F)F)cc(C(F)(F)F)c1

>  <Name>  (867) 
Rolapitant

>  <Pocket>  (867) 
nan

>  <ATP_Site>  (867) 
nan

>  <Peripheral>  (867) 
nan

>  <Num_H_Atoms_ProtBoundConf>  (867) 
nan

>  <Num_Resolved_Atoms>  (867) 
nan

>  <Num_Not_Resolved_Atoms>  (867) 
nan

$$$$
CHEMBL589
     RDKit          3D

  0  0  0  0  0  0  0  0  0  0999 V3000
M  V30 BEGIN CTAB
M  V30 COUNTS 43 44 0 0 0
M  V30 BEGIN ATOM
M  V30 1 C -2.310318 -1.326561 2.621577 0
M  V30 2 C -1.517871 -2.520392 3.049087 0
M  V30 3 C -0.665894 -3.007273 1.918195 0
M  V30 4 N 0.296351 -2.030127 1.431615 0
M  V30 5 C 1.038731 -2.668061 0.414613 0
M  V30 6 C 0.176315 -2.904298 -0.812991 0
M  V30 7 C -0.413734 -1.660559 -1.384793 0
M  V30 8 C 0.900493 -1.323503 2.445531 0
M  V30 9 C 1.867495 -0.228402 2.262612 0
M  V30 10 C 1.464909 0.930253 1.478921 0
M  V30 11 C 0.592909 1.753595 2.207901 0
M  V30 12 C -0.043420 2.866883 1.691576 0
M  V30 13 C 0.163759 3.231071 0.378714 0
M  V30 14 C 1.015356 2.443809 -0.355148 0
M  V30 15 C 1.648720 1.330028 0.173579 0
M  V30 16 C 2.580353 0.685193 -0.768746 0
M  V30 17 C 2.362235 1.475176 -2.012783 0
M  V30 18 O 2.886312 1.258222 -3.139112 0
M  V30 19 N 1.459621 2.522701 -1.699880 0
M  V30 20 H -1.936085 -0.863200 1.664977 0
M  V30 21 H -2.336633 -0.510830 3.384766 0
M  V30 22 H -3.388186 -1.550583 2.403623 0
M  V30 23 H -2.254103 -3.319577 3.279414 0
M  V30 24 H -0.953941 -2.387386 3.994884 0
M  V30 25 H -1.356214 -3.260105 1.094626 0
M  V30 26 H -0.133374 -3.916124 2.262962 0
M  V30 27 H 1.994888 -2.275948 0.112611 0
M  V30 28 H 1.256417 -3.735720 0.770017 0
M  V30 29 H 0.898151 -3.289120 -1.593069 0
M  V30 30 H -0.566692 -3.688202 -0.699565 0
M  V30 31 H -0.911809 -1.925217 -2.350895 0
M  V30 32 H 0.296848 -0.859822 -1.565960 0
M  V30 33 H -1.240781 -1.274762 -0.732646 0
M  V30 34 H 0.056139 -0.855425 3.081923 0
M  V30 35 H 1.405249 -2.060291 3.156668 0
M  V30 36 H 2.865675 -0.571968 1.876938 0
M  V30 37 H 2.130881 0.136000 3.306549 0
M  V30 38 H 0.319864 1.613765 3.245026 0
M  V30 39 H -0.717437 3.503612 2.233156 0
M  V30 40 H -0.283863 4.067521 -0.106457 0
M  V30 41 H 2.481769 -0.373814 -0.923753 0
M  V30 42 H 3.658393 0.938331 -0.486735 0
M  V30 43 H 1.187488 3.251727 -2.420739 0
M  V30 END ATOM
M  V30 BEGIN BOND
M  V30 1 1 1 2
M  V30 2 1 2 3
M  V30 3 1 3 4
M  V30 4 1 4 5
M  V30 5 1 5 6
M  V30 6 1 6 7
M  V30 7 1 4 8
M  V30 8 1 8 9
M  V30 9 1 9 10
M  V30 10 2 10 11
M  V30 11 1 11 12
M  V30 12 2 12 13
M  V30 13 1 13 14
M  V30 14 2 14 15
M  V30 15 1 15 16
M  V30 16 1 16 17
M  V30 17 2 17 18
M  V30 18 1 17 19
M  V30 19 1 15 10
M  V30 20 1 19 14
M  V30 21 1 1 20
M  V30 22 1 1 21
M  V30 23 1 1 22
M  V30 24 1 2 23
M  V30 25 1 2 24
M  V30 26 1 3 25
M  V30 27 1 3 26
M  V30 28 1 5 27
M  V30 29 1 5 28
M  V30 30 1 6 29
M  V30 31 1 6 30
M  V30 32 1 7 31
M  V30 33 1 7 32
M  V30 34 1 7 33
M  V30 35 1 8 34
M  V30 36 1 8 35
M  V30 37 1 9 36
M  V30 38 1 9 37
M  V30 39 1 11 38
M  V30 40 1 12 39
M  V30 41 1 13 40
M  V30 42 1 16 41
M  V30 43 1 16 42
M  V30 44 1 19 43
M  V30 END BOND
M  V30 END CTAB
M  END
>  <Dataset>  (868) 
OralDrugs

>  <Ligand_Instance>  (868) 
nan

>  <PDB_ID>  (868) 
nan

>  <Standardized_SMILES>  (868) 
CCCN(CCC)CCc1cccc2c1CC(=O)N2

>  <Name>  (868) 
Ropinirole

>  <Pocket>  (868) 
nan

>  <ATP_Site>  (868) 
nan

>  <Peripheral>  (868) 
nan

>  <Num_H_Atoms_ProtBoundConf>  (868) 
nan

>  <Num_Resolved_Atoms>  (868) 
nan

>  <Num_Not_Resolved_Atoms>  (868) 
nan

$$$$
CHEMBL1496
     RDKit          3D

  0  0  0  0  0  0  0  0  0  0999 V3000
M  V30 BEGIN CTAB
M  V30 COUNTS 61 62 0 0 0
M  V30 BEGIN ATOM
M  V30 1 C 0.902044 -2.088220 3.139044 0
M  V30 2 C 0.119658 -0.785603 3.093042 0
M  V30 3 C 0.547195 0.084164 4.290385 0
M  V30 4 C 0.416332 -0.015839 1.872346 0
M  V30 5 N 1.387513 0.909762 1.918066 0
M  V30 6 C 1.720631 1.657218 0.856501 0
M  V30 7 N 2.768679 2.597974 1.034187 0
M  V30 8 C 3.460893 2.759629 2.296991 0
M  V30 9 S 3.197306 3.563362 -0.341353 0
M  V30 10 C 3.752588 2.432030 -1.601378 0
M  V30 11 O 4.283426 4.529229 -0.036085 0
M  V30 12 O 1.964265 4.251147 -0.869369 0
M  V30 13 N 1.068251 1.488399 -0.302077 0
M  V30 14 C 0.063616 0.571018 -0.443271 0
M  V30 15 C -0.451060 0.658971 -1.780808 0
M  V30 16 C -1.739092 0.881426 -2.279550 0
M  V30 17 C -2.115272 0.931515 -3.596046 0
M  V30 18 C -1.113313 0.741912 -4.512834 0
M  V30 19 F -1.461299 0.787133 -5.829531 0
M  V30 20 C 0.197146 0.513462 -4.184731 0
M  V30 21 C 0.464626 0.483073 -2.833132 0
M  V30 22 C -0.230980 -0.163995 0.666418 0
M  V30 23 C -1.255959 -1.168479 0.561386 0
M  V30 24 C -2.057947 -1.842089 -0.215452 0
M  V30 25 C -3.090999 -2.880216 -0.125779 0 CFG=1
M  V30 26 O -3.962977 -2.623994 -1.241407 0
M  V30 27 C -2.555972 -4.258858 -0.401783 0
M  V30 28 C -1.490912 -4.775638 0.477718 0 CFG=1
M  V30 29 O -0.374608 -3.934551 0.470766 0
M  V30 30 C -1.809096 -5.326697 1.801625 0
M  V30 31 C -2.437401 -4.496539 2.818224 0
M  V30 32 O -2.879376 -3.337709 3.120149 0
M  V30 33 O -2.646343 -5.310552 3.942615 0
M  V30 34 H 0.258929 -2.858015 3.599296 0
M  V30 35 H 1.802834 -1.947484 3.781143 0
M  V30 36 H 1.178933 -2.328610 2.107352 0
M  V30 37 H -0.932388 -1.009580 3.272020 0
M  V30 38 H -0.293227 0.754633 4.516655 0
M  V30 39 H 0.698820 -0.590905 5.169032 0
M  V30 40 H 1.489622 0.619744 4.060430 0
M  V30 41 H 4.553686 2.756067 2.225710 0
M  V30 42 H 3.082161 3.626835 2.873610 0
M  V30 43 H 3.211734 1.842676 2.908785 0
M  V30 44 H 4.826333 2.526682 -1.809125 0
M  V30 45 H 3.201091 2.579432 -2.551580 0
M  V30 46 H 3.590282 1.359960 -1.321159 0
M  V30 47 H -2.451078 1.018000 -1.453373 0
M  V30 48 H -3.158975 1.114158 -3.797760 0
M  V30 49 H 0.980728 0.365398 -4.910626 0
M  V30 50 H 1.520996 0.298498 -2.576991 0
M  V30 51 H -1.577286 -1.623283 1.496702 0
M  V30 52 H -1.791083 -1.506600 -1.231843 0
M  V30 53 H -3.764794 -2.792450 0.723914 0
M  V30 54 H -3.405680 -2.422061 -2.035007 0
M  V30 55 H -2.213785 -4.319946 -1.479136 0
M  V30 56 H -3.463463 -4.946757 -0.392034 0
M  V30 57 H -1.056629 -5.692987 -0.125249 0
M  V30 58 H 0.364810 -4.363335 0.982599 0
M  V30 59 H -0.871930 -5.807872 2.202243 0
M  V30 60 H -2.478404 -6.240444 1.632319 0
M  V30 61 H -2.971615 -4.904812 4.802626 0
M  V30 END ATOM
M  V30 BEGIN BOND
M  V30 1 1 1 2
M  V30 2 1 2 3
M  V30 3 1 2 4
M  V30 4 2 4 5
M  V30 5 1 5 6
M  V30 6 1 6 7
M  V30 7 1 7 8
M  V30 8 1 7 9
M  V30 9 1 9 10
M  V30 10 2 9 11
M  V30 11 2 9 12
M  V30 12 2 6 13
M  V30 13 1 13 14
M  V30 14 1 14 15
M  V30 15 2 15 16
M  V30 16 1 16 17
M  V30 17 2 17 18
M  V30 18 1 18 19
M  V30 19 1 18 20
M  V30 20 2 20 21
M  V30 21 2 14 22
M  V30 22 1 22 23
M  V30 23 2 23 24
M  V30 24 1 24 25
M  V30 25 1 25 26
M  V30 26 1 25 27
M  V30 27 1 27 28
M  V30 28 1 28 29
M  V30 29 1 28 30
M  V30 30 1 30 31
M  V30 31 2 31 32
M  V30 32 1 31 33
M  V30 33 1 22 4
M  V30 34 1 21 15
M  V30 35 1 1 34
M  V30 36 1 1 35
M  V30 37 1 1 36
M  V30 38 1 2 37
M  V30 39 1 3 38
M  V30 40 1 3 39
M  V30 41 1 3 40
M  V30 42 1 8 41
M  V30 43 1 8 42
M  V30 44 1 8 43
M  V30 45 1 10 44
M  V30 46 1 10 45
M  V30 47 1 10 46
M  V30 48 1 16 47
M  V30 49 1 17 48
M  V30 50 1 20 49
M  V30 51 1 21 50
M  V30 52 1 23 51
M  V30 53 1 24 52
M  V30 54 1 25 53 CFG=1
M  V30 55 1 26 54
M  V30 56 1 27 55
M  V30 57 1 27 56
M  V30 58 1 28 57 CFG=3
M  V30 59 1 29 58
M  V30 60 1 30 59
M  V30 61 1 30 60
M  V30 62 1 33 61
M  V30 END BOND
M  V30 END CTAB
M  END
>  <Dataset>  (869) 
OralDrugs

>  <Ligand_Instance>  (869) 
nan

>  <PDB_ID>  (869) 
nan

>  <Standardized_SMILES>  (869) 
CC(C)c1nc(N(C)S(C)(=O)=O)nc(-c2ccc(F)cc2)c1/C=C/[C@@H](O)C[C@@H](O)CC(=O)O

>  <Name>  (869) 
Rosuvastatin

>  <Pocket>  (869) 
nan

>  <ATP_Site>  (869) 
nan

>  <Peripheral>  (869) 
nan

>  <Num_H_Atoms_ProtBoundConf>  (869) 
nan

>  <Num_Resolved_Atoms>  (869) 
nan

>  <Num_Not_Resolved_Atoms>  (869) 
nan

$$$$
CHEMBL1173055
     RDKit          3D

  0  0  0  0  0  0  0  0  0  0999 V3000
M  V30 BEGIN CTAB
M  V30 COUNTS 42 45 0 0 0
M  V30 BEGIN ATOM
M  V30 1 C 1.253367 -7.592600 1.398883 0
M  V30 2 N 1.491250 -6.157034 1.250450 0
M  V30 3 C 0.221417 -5.515476 1.039271 0
M  V30 4 C 0.316113 -4.043217 0.871286 0
M  V30 5 C 0.244032 -3.160634 1.927024 0
M  V30 6 C 0.340294 -1.809400 1.687491 0
M  V30 7 C 0.505858 -1.223582 0.461354 0
M  V30 8 C 0.557990 0.202143 0.204534 0
M  V30 9 N 0.977293 0.609884 -1.022679 0
M  V30 10 C 0.978483 1.937451 -1.146609 0
M  V30 11 C 1.299127 2.859586 -2.114768 0
M  V30 12 C 1.197693 4.219934 -1.924158 0
M  V30 13 F 1.533598 5.046886 -2.929798 0
M  V30 14 C 0.758931 4.730723 -0.722281 0
M  V30 15 C 0.437087 3.792731 0.249509 0
M  V30 16 C 0.537063 2.416105 0.060046 0
M  V30 17 C 0.271868 1.354479 0.901116 0
M  V30 18 C -0.263853 1.317041 2.267381 0
M  V30 19 C -1.114450 2.494892 2.675275 0
M  V30 20 N -0.456737 3.764778 2.697089 0
M  V30 21 C 0.002959 4.445704 1.507072 0
M  V30 22 O 0.036308 5.703072 1.547121 0
M  V30 23 C 0.571296 -2.154967 -0.550416 0
M  V30 24 C 0.483569 -3.516045 -0.387897 0
M  V30 25 H 1.982269 -8.080541 2.048350 0
M  V30 26 H 0.218521 -7.817606 1.707422 0
M  V30 27 H 1.391964 -8.054668 0.378765 0
M  V30 28 H 1.913061 -5.827717 2.149343 0
M  V30 29 H -0.465592 -5.683686 1.899507 0
M  V30 30 H -0.299709 -5.993622 0.172970 0
M  V30 31 H 0.113382 -3.597587 2.899081 0
M  V30 32 H 0.296943 -1.254945 2.588873 0
M  V30 33 H 1.294125 0.056103 -1.868616 0
M  V30 34 H 1.643188 2.483828 -3.057267 0
M  V30 35 H 0.663194 5.787849 -0.525020 0
M  V30 36 H 0.493097 1.052115 2.990480 0
M  V30 37 H -1.029511 0.470608 2.249013 0
M  V30 38 H -1.994560 2.484822 1.982420 0
M  V30 39 H -1.507584 2.223238 3.689611 0
M  V30 40 H -0.270865 4.286602 3.589290 0
M  V30 41 H 0.701565 -1.852444 -1.587964 0
M  V30 42 H 0.540846 -4.197348 -1.220840 0
M  V30 END ATOM
M  V30 BEGIN BOND
M  V30 1 1 1 2
M  V30 2 1 2 3
M  V30 3 1 3 4
M  V30 4 2 4 5
M  V30 5 1 5 6
M  V30 6 2 6 7
M  V30 7 1 7 8
M  V30 8 1 8 9
M  V30 9 1 9 10
M  V30 10 2 10 11
M  V30 11 1 11 12
M  V30 12 1 12 13
M  V30 13 2 12 14
M  V30 14 1 14 15
M  V30 15 2 15 16
M  V30 16 1 16 17
M  V30 17 1 17 18
M  V30 18 1 18 19
M  V30 19 1 19 20
M  V30 20 1 20 21
M  V30 21 2 21 22
M  V30 22 1 7 23
M  V30 23 2 23 24
M  V30 24 1 24 4
M  V30 25 2 17 8
M  V30 26 1 16 10
M  V30 27 1 21 15
M  V30 28 1 1 25
M  V30 29 1 1 26
M  V30 30 1 1 27
M  V30 31 1 2 28
M  V30 32 1 3 29
M  V30 33 1 3 30
M  V30 34 1 5 31
M  V30 35 1 6 32
M  V30 36 1 9 33
M  V30 37 1 11 34
M  V30 38 1 14 35
M  V30 39 1 18 36
M  V30 40 1 18 37
M  V30 41 1 19 38
M  V30 42 1 19 39
M  V30 43 1 20 40
M  V30 44 1 23 41
M  V30 45 1 24 42
M  V30 END BOND
M  V30 END CTAB
M  END
>  <Dataset>  (870) 
OralDrugs

>  <Ligand_Instance>  (870) 
nan

>  <PDB_ID>  (870) 
nan

>  <Standardized_SMILES>  (870) 
CNCc1ccc(-c2[nH]c3cc(F)cc4c3c2CCNC4=O)cc1

>  <Name>  (870) 
Rucaparib

>  <Pocket>  (870) 
nan

>  <ATP_Site>  (870) 
nan

>  <Peripheral>  (870) 
nan

>  <Num_H_Atoms_ProtBoundConf>  (870) 
nan

>  <Num_Resolved_Atoms>  (870) 
nan

>  <Num_Not_Resolved_Atoms>  (870) 
nan

$$$$
CHEMBL1201754
     RDKit          3D

  0  0  0  0  0  0  0  0  0  0999 V3000
M  V30 BEGIN CTAB
M  V30 COUNTS 25 26 0 0 0
M  V30 BEGIN ATOM
M  V30 1 N -0.264056 -4.147087 2.790955 0
M  V30 2 C 1.029899 -3.932474 2.237230 0
M  V30 3 O 1.750805 -4.949862 2.040069 0
M  V30 4 C 1.449080 -2.581804 1.932474 0
M  V30 5 C 0.730244 -1.419227 2.116399 0
M  V30 6 N 1.463086 -0.344146 1.709236 0
M  V30 7 C 1.008019 1.022990 1.762912 0
M  V30 8 C 0.320150 1.361362 0.478566 0
M  V30 9 C 1.096720 1.605791 -0.635085 0
M  V30 10 F 2.450253 1.553659 -0.604694 0
M  V30 11 C 0.447242 1.914857 -1.811687 0
M  V30 12 C -0.931060 1.991180 -1.929113 0
M  V30 13 C -1.647605 1.732909 -0.767133 0
M  V30 14 C -1.068918 1.413519 0.461917 0
M  V30 15 F -1.806952 1.170951 1.547884 0
M  V30 16 N 2.590200 -0.868335 1.294800 0
M  V30 17 N 2.600637 -2.192011 1.419359 0
M  V30 18 H -0.672276 -4.828964 3.459141 0
M  V30 19 H -1.069081 -3.527723 2.528305 0
M  V30 20 H -0.269566 -1.337815 2.522473 0
M  V30 21 H 1.819387 1.737971 1.989711 0
M  V30 22 H 0.295132 1.101638 2.607151 0
M  V30 23 H 0.973981 2.125390 -2.752010 0
M  V30 24 H -1.475395 2.224117 -2.813681 0
M  V30 25 H -2.734479 1.768478 -0.755214 0
M  V30 END ATOM
M  V30 BEGIN BOND
M  V30 1 1 1 2
M  V30 2 2 2 3
M  V30 3 1 2 4
M  V30 4 2 4 5
M  V30 5 1 5 6
M  V30 6 1 6 7
M  V30 7 1 7 8
M  V30 8 2 8 9
M  V30 9 1 9 10
M  V30 10 1 9 11
M  V30 11 2 11 12
M  V30 12 1 12 13
M  V30 13 2 13 14
M  V30 14 1 14 15
M  V30 15 1 6 16
M  V30 16 2 16 17
M  V30 17 1 17 4
M  V30 18 1 14 8
M  V30 19 1 1 18
M  V30 20 1 1 19
M  V30 21 1 5 20
M  V30 22 1 7 21
M  V30 23 1 7 22
M  V30 24 1 11 23
M  V30 25 1 12 24
M  V30 26 1 13 25
M  V30 END BOND
M  V30 END CTAB
M  END
>  <Dataset>  (871) 
OralDrugs

>  <Ligand_Instance>  (871) 
nan

>  <PDB_ID>  (871) 
nan

>  <Standardized_SMILES>  (871) 
NC(=O)c1cn(Cc2c(F)cccc2F)nn1

>  <Name>  (871) 
Rufinamide

>  <Pocket>  (871) 
nan

>  <ATP_Site>  (871) 
nan

>  <Peripheral>  (871) 
nan

>  <Num_H_Atoms_ProtBoundConf>  (871) 
nan

>  <Num_Resolved_Atoms>  (871) 
nan

>  <Num_Not_Resolved_Atoms>  (871) 
nan

$$$$
CHEMBL91397
     RDKit          3D

  0  0  0  0  0  0  0  0  0  0999 V3000
M  V30 BEGIN CTAB
M  V30 COUNTS 56 60 0 0 0
M  V30 BEGIN ATOM
M  V30 1 C 2.729416 0.546763 6.271131 0
M  V30 2 C 3.373213 -0.094830 5.094305 0
M  V30 3 C 4.739929 0.014562 5.016751 0
M  V30 4 N 5.348765 -0.566900 3.948764 0
M  V30 5 C 4.606830 -1.221897 3.013521 0
M  V30 6 C 3.213759 -1.345119 3.072914 0
M  V30 7 C 2.527283 -2.095417 1.978213 0
M  V30 8 N 2.180548 -1.236555 0.938635 0
M  V30 9 C 1.282877 -0.168526 1.169644 0
M  V30 10 C 0.711133 0.350955 -0.187897 0
M  V30 11 C -0.068306 -0.691551 -0.872751 0
M  V30 12 C -1.284601 -0.705019 -1.410019 0
M  V30 13 C -2.045463 0.569084 -1.349564 0
M  V30 14 C -1.217453 1.625606 -1.774267 0
M  V30 15 C -1.759080 2.883905 -1.764639 0
M  V30 16 C -3.073629 3.040919 -1.344584 0
M  V30 17 Cl -3.781677 4.653451 -1.327390 0
M  V30 18 C -3.879631 2.000159 -0.932092 0
M  V30 19 C -3.374200 0.693063 -0.922723 0
M  V30 20 C -4.300525 -0.385011 -0.500338 0
M  V30 21 C -4.488047 -1.488834 -1.476380 0
M  V30 22 C -3.307773 -2.215541 -1.927714 0
M  V30 23 C -3.654740 -3.455667 -2.463627 0
M  V30 24 C -2.602561 -4.247252 -2.937125 0
M  V30 25 C -1.265086 -3.939493 -2.933457 0
M  V30 26 N -1.014710 -2.741030 -2.406697 0
M  V30 27 C -1.933978 -1.930115 -1.937789 0
M  V30 28 C 0.795971 -1.888268 -0.980802 0
M  V30 29 C 2.200314 -1.700187 -0.404757 0
M  V30 30 C 2.604429 -0.757068 4.152212 0
M  V30 31 H 2.436323 1.601618 6.072018 0
M  V30 32 H 1.820253 -0.042868 6.499643 0
M  V30 33 H 3.379941 0.474099 7.165251 0
M  V30 34 H 5.369334 0.522864 5.732213 0
M  V30 35 H 5.121705 -1.674763 2.174731 0
M  V30 36 H 1.681115 -2.651450 2.441782 0
M  V30 37 H 3.231869 -2.886465 1.650406 0
M  V30 38 H 0.402066 -0.480921 1.746845 0
M  V30 39 H 1.786176 0.636482 1.717846 0
M  V30 40 H 1.602738 0.712283 -0.720525 0
M  V30 41 H 0.059691 1.235494 0.103706 0
M  V30 42 H -0.219389 1.340593 -2.100885 0
M  V30 43 H -1.137994 3.691550 -2.083760 0
M  V30 44 H -4.904113 2.110617 -0.603998 0
M  V30 45 H -5.297163 0.026037 -0.239083 0
M  V30 46 H -3.905809 -0.812629 0.441800 0
M  V30 47 H -5.308494 -2.168339 -1.128566 0
M  V30 48 H -4.937757 -1.011847 -2.397937 0
M  V30 49 H -4.678121 -3.778662 -2.507198 0
M  V30 50 H -2.948241 -5.210273 -3.346669 0
M  V30 51 H -0.573383 -4.656311 -3.335994 0
M  V30 52 H 0.979147 -2.028605 -2.096317 0
M  V30 53 H 0.329415 -2.793664 -0.616639 0
M  V30 54 H 2.757124 -2.652878 -0.446106 0
M  V30 55 H 2.765853 -0.974576 -1.020869 0
M  V30 56 H 1.548211 -0.837439 4.219671 0
M  V30 END ATOM
M  V30 BEGIN BOND
M  V30 1 1 1 2
M  V30 2 2 2 3
M  V30 3 1 3 4
M  V30 4 2 4 5
M  V30 5 1 5 6
M  V30 6 1 6 7
M  V30 7 1 7 8
M  V30 8 1 8 9
M  V30 9 1 9 10
M  V30 10 1 10 11
M  V30 11 2 11 12 CFG=2
M  V30 12 1 12 13
M  V30 13 2 13 14
M  V30 14 1 14 15
M  V30 15 2 15 16
M  V30 16 1 16 17
M  V30 17 1 16 18
M  V30 18 2 18 19
M  V30 19 1 19 20
M  V30 20 1 20 21
M  V30 21 1 21 22
M  V30 22 2 22 23
M  V30 23 1 23 24
M  V30 24 2 24 25
M  V30 25 1 25 26
M  V30 26 2 26 27
M  V30 27 1 11 28
M  V30 28 1 28 29
M  V30 29 2 6 30
M  V30 30 1 30 2
M  V30 31 1 29 8
M  V30 32 1 27 12
M  V30 33 1 19 13
M  V30 34 1 27 22
M  V30 35 1 1 31
M  V30 36 1 1 32
M  V30 37 1 1 33
M  V30 38 1 3 34
M  V30 39 1 5 35
M  V30 40 1 7 36
M  V30 41 1 7 37
M  V30 42 1 9 38
M  V30 43 1 9 39
M  V30 44 1 10 40
M  V30 45 1 10 41
M  V30 46 1 14 42
M  V30 47 1 15 43
M  V30 48 1 18 44
M  V30 49 1 20 45
M  V30 50 1 20 46
M  V30 51 1 21 47
M  V30 52 1 21 48
M  V30 53 1 23 49
M  V30 54 1 24 50
M  V30 55 1 25 51
M  V30 56 1 28 52
M  V30 57 1 28 53
M  V30 58 1 29 54
M  V30 59 1 29 55
M  V30 60 1 30 56
M  V30 END BOND
M  V30 END CTAB
M  END
>  <Dataset>  (872) 
OralDrugs

>  <Ligand_Instance>  (872) 
nan

>  <PDB_ID>  (872) 
nan

>  <Standardized_SMILES>  (872) 
Cc1cncc(CN2CCC(=C3c4ccc(Cl)cc4CCc4cccnc43)CC2)c1

>  <Name>  (872) 
Rupatadine

>  <Pocket>  (872) 
nan

>  <ATP_Site>  (872) 
nan

>  <Peripheral>  (872) 
nan

>  <Num_H_Atoms_ProtBoundConf>  (872) 
nan

>  <Num_Resolved_Atoms>  (872) 
nan

>  <Num_Not_Resolved_Atoms>  (872) 
nan

$$$$
CHEMBL1789941
     RDKit          3D

  0  0  0  0  0  0  0  0  0  0999 V3000
M  V30 BEGIN CTAB
M  V30 COUNTS 41 44 0 0 0
M  V30 BEGIN ATOM
M  V30 1 N 2.600275 0.449893 -1.598361 0
M  V30 2 C 2.909769 -0.372218 -0.848549 0
M  V30 3 C 3.312833 -1.375900 0.085444 0
M  V30 4 C 2.233912 -2.033581 0.837078 0 CFG=2
M  V30 5 C 1.191756 -2.777689 0.124875 0
M  V30 6 C 1.729185 -3.941140 -0.705004 0
M  V30 7 C 0.689263 -4.193705 -1.773324 0
M  V30 8 C -0.467519 -3.301299 -1.377296 0
M  V30 9 C 0.323381 -2.083820 -0.847296 0
M  V30 10 N 1.641610 -1.115177 1.825254 0
M  V30 11 C 0.978092 -0.005214 1.438162 0
M  V30 12 C 0.535468 0.659995 2.564443 0
M  V30 13 C -0.216999 1.879140 2.854719 0
M  V30 14 N 0.148005 2.756858 3.801299 0
M  V30 15 C -0.572121 3.867127 4.037304 0
M  V30 16 N -1.695584 4.146578 3.330259 0
M  V30 17 C -2.132086 3.317724 2.361685 0
M  V30 18 N -3.176325 3.336661 1.526257 0
M  V30 19 C -3.152598 2.236883 0.731527 0
M  V30 20 C -2.022196 1.521212 1.121337 0
M  V30 21 C -1.371040 2.184910 2.142281 0
M  V30 22 C 0.967365 -0.107635 3.646895 0
M  V30 23 N 1.622593 -1.156845 3.166370 0
M  V30 24 H 3.889766 -2.161252 -0.457747 0
M  V30 25 H 4.044445 -0.986364 0.855815 0
M  V30 26 H 2.749506 -2.795809 1.505719 0
M  V30 27 H 0.512917 -3.279469 0.879598 0
M  V30 28 H 2.648480 -3.604959 -1.188485 0
M  V30 29 H 1.929336 -4.835154 -0.077822 0
M  V30 30 H 0.402446 -5.237078 -1.895758 0
M  V30 31 H 1.038232 -3.789426 -2.761894 0
M  V30 32 H -1.110023 -3.031360 -2.218461 0
M  V30 33 H -0.985624 -3.722964 -0.508129 0
M  V30 34 H -0.445918 -1.419003 -0.456101 0
M  V30 35 H 0.886238 -1.709030 -1.726558 0
M  V30 36 H 0.738364 0.439804 0.488554 0
M  V30 37 H -0.259409 4.562405 4.806301 0
M  V30 38 H -3.917888 4.089476 1.480244 0
M  V30 39 H -3.873532 1.974521 -0.049113 0
M  V30 40 H -1.683046 0.591374 0.708961 0
M  V30 41 H 0.911505 -0.074520 4.724601 0
M  V30 END ATOM
M  V30 BEGIN BOND
M  V30 1 3 1 2
M  V30 2 1 2 3
M  V30 3 1 3 4
M  V30 4 1 4 5
M  V30 5 1 5 6
M  V30 6 1 6 7
M  V30 7 1 7 8
M  V30 8 1 8 9
M  V30 9 1 4 10
M  V30 10 1 10 11
M  V30 11 2 11 12
M  V30 12 1 12 13
M  V30 13 2 13 14
M  V30 14 1 14 15
M  V30 15 2 15 16
M  V30 16 1 16 17
M  V30 17 1 17 18
M  V30 18 1 18 19
M  V30 19 2 19 20
M  V30 20 1 20 21
M  V30 21 1 12 22
M  V30 22 2 22 23
M  V30 23 1 9 5
M  V30 24 1 23 10
M  V30 25 1 21 13
M  V30 26 2 21 17
M  V30 27 1 3 24
M  V30 28 1 3 25
M  V30 29 1 4 26 CFG=1
M  V30 30 1 5 27
M  V30 31 1 6 28
M  V30 32 1 6 29
M  V30 33 1 7 30
M  V30 34 1 7 31
M  V30 35 1 8 32
M  V30 36 1 8 33
M  V30 37 1 9 34
M  V30 38 1 9 35
M  V30 39 1 11 36
M  V30 40 1 15 37
M  V30 41 1 18 38
M  V30 42 1 19 39
M  V30 43 1 20 40
M  V30 44 1 22 41
M  V30 END BOND
M  V30 END CTAB
M  END
>  <Dataset>  (873) 
OralDrugs

>  <Ligand_Instance>  (873) 
nan

>  <PDB_ID>  (873) 
nan

>  <Standardized_SMILES>  (873) 
N#CC[C@H](C1CCCC1)n1cc(-c2ncnc3[nH]ccc23)cn1

>  <Name>  (873) 
Ruxolitinib

>  <Pocket>  (873) 
nan

>  <ATP_Site>  (873) 
nan

>  <Peripheral>  (873) 
nan

>  <Num_H_Atoms_ProtBoundConf>  (873) 
nan

>  <Num_Resolved_Atoms>  (873) 
nan

>  <Num_Not_Resolved_Atoms>  (873) 
nan

$$$$
CHEMBL396778
     RDKit          3D

  0  0  0  0  0  0  0  0  0  0999 V3000
M  V30 BEGIN CTAB
M  V30 COUNTS 41 42 0 0 0
M  V30 BEGIN ATOM
M  V30 1 C -1.989398 -4.997404 2.752385 0
M  V30 2 C -0.963787 -3.891409 2.466642 0 CFG=2
M  V30 3 N -0.022706 -4.440020 1.571608 0
M  V30 4 C 1.041942 -3.623001 1.140973 0
M  V30 5 C 0.694464 -2.387038 0.424466 0
M  V30 6 C 0.512801 -1.256494 1.194150 0
M  V30 7 C 0.186213 -0.069997 0.579353 0
M  V30 8 C 0.023136 0.078131 -0.779086 0
M  V30 9 O -0.282340 1.069222 -1.642872 0
M  V30 10 C -0.562439 2.410316 -1.460139 0
M  V30 11 C 0.488933 3.232022 -0.849621 0
M  V30 12 C 1.449116 3.744195 -1.730990 0
M  V30 13 C 2.509800 4.541886 -1.390520 0
M  V30 14 C 2.681571 4.893961 -0.072379 0
M  V30 15 C 1.757924 4.410975 0.828999 0
M  V30 16 F 1.824691 4.694204 2.170559 0
M  V30 17 C 0.699149 3.609807 0.460026 0
M  V30 18 C 0.212746 -1.085937 -1.543855 0
M  V30 19 C 0.546483 -2.310823 -0.944083 0
M  V30 20 C -0.455818 -3.472964 3.774857 0
M  V30 21 N 0.595046 -3.313481 4.711041 0
M  V30 22 O -1.349676 -2.983143 4.546450 0
M  V30 23 H -2.148860 -5.524648 1.785440 0
M  V30 24 H -1.520559 -5.689032 3.491551 0
M  V30 25 H -2.899549 -4.512246 3.152378 0
M  V30 26 H -1.561700 -3.048973 2.070601 0
M  V30 27 H -0.524579 -4.859805 0.769651 0
M  V30 28 H 1.685123 -4.231139 0.464050 0
M  V30 29 H 1.716557 -3.360900 1.992512 0
M  V30 30 H 0.591910 -1.157296 2.256331 0
M  V30 31 H 0.016272 0.874137 1.068298 0
M  V30 32 H -0.785461 2.835054 -2.487164 0
M  V30 33 H -1.518426 2.593731 -0.908345 0
M  V30 34 H 1.397028 3.518083 -2.806946 0
M  V30 35 H 3.217511 4.908928 -2.099395 0
M  V30 36 H 3.450131 5.501088 0.340341 0
M  V30 37 H -0.042136 3.225540 1.146680 0
M  V30 38 H 0.146731 -1.251130 -2.624662 0
M  V30 39 H 0.711920 -3.252955 -1.437704 0
M  V30 40 H 1.165116 -2.440825 4.785396 0
M  V30 41 H 0.857950 -4.076672 5.388105 0
M  V30 END ATOM
M  V30 BEGIN BOND
M  V30 1 1 1 2
M  V30 2 1 2 3
M  V30 3 1 3 4
M  V30 4 1 4 5
M  V30 5 2 5 6
M  V30 6 1 6 7
M  V30 7 2 7 8
M  V30 8 1 8 9
M  V30 9 1 9 10
M  V30 10 1 10 11
M  V30 11 2 11 12
M  V30 12 1 12 13
M  V30 13 2 13 14
M  V30 14 1 14 15
M  V30 15 1 15 16
M  V30 16 2 15 17
M  V30 17 1 8 18
M  V30 18 2 18 19
M  V30 19 1 2 20
M  V30 20 1 20 21
M  V30 21 2 20 22
M  V30 22 1 19 5
M  V30 23 1 17 11
M  V30 24 1 1 23
M  V30 25 1 1 24
M  V30 26 1 1 25
M  V30 27 1 2 26 CFG=3
M  V30 28 1 3 27
M  V30 29 1 4 28
M  V30 30 1 4 29
M  V30 31 1 6 30
M  V30 32 1 7 31
M  V30 33 1 10 32
M  V30 34 1 10 33
M  V30 35 1 12 34
M  V30 36 1 13 35
M  V30 37 1 14 36
M  V30 38 1 17 37
M  V30 39 1 18 38
M  V30 40 1 19 39
M  V30 41 1 21 40
M  V30 42 1 21 41
M  V30 END BOND
M  V30 END CTAB
M  END
>  <Dataset>  (874) 
OralDrugs

>  <Ligand_Instance>  (874) 
nan

>  <PDB_ID>  (874) 
nan

>  <Standardized_SMILES>  (874) 
C[C@H](NCc1ccc(OCc2cccc(F)c2)cc1)C(N)=O

>  <Name>  (874) 
Safinamide

>  <Pocket>  (874) 
nan

>  <ATP_Site>  (874) 
nan

>  <Peripheral>  (874) 
nan

>  <Num_H_Atoms_ProtBoundConf>  (874) 
nan

>  <Num_Resolved_Atoms>  (874) 
nan

>  <Num_Not_Resolved_Atoms>  (874) 
nan

$$$$
CHEMBL426084
     RDKit          3D

  0  0  0  0  0  0  0  0  0  0999 V3000
M  V30 BEGIN CTAB
M  V30 COUNTS 53 57 0 0 0
M  V30 BEGIN ATOM
M  V30 1 N 3.948004 -3.650171 2.830368 0
M  V30 2 C 3.222307 -3.297423 1.667426 0
M  V30 3 O 3.991978 -3.703979 0.761102 0
M  V30 4 C 1.924608 -2.633731 1.729584 0
M  V30 5 C 1.422733 -2.355390 2.960519 0
M  V30 6 C 0.209677 -1.733061 3.030943 0
M  V30 7 C -0.489384 -1.394676 1.910360 0
M  V30 8 C -0.018682 -1.657368 0.646216 0
M  V30 9 C 1.230604 -2.298390 0.575345 0
M  V30 10 O 1.887285 -2.655384 -0.595022 0
M  V30 11 C -0.581328 -1.393002 -0.717307 0 CFG=2
M  V30 12 C 0.301816 -0.335361 -1.404722 0
M  V30 13 C 0.118414 0.939086 -0.652780 0
M  V30 14 N -0.601494 0.880523 0.563852 0
M  V30 15 C -0.012656 1.467484 1.686096 0
M  V30 16 C 0.011049 2.985874 1.446216 0
M  V30 17 C 0.601869 3.851449 2.517036 0
M  V30 18 C 1.386828 3.647195 1.276468 0
M  V30 19 C -1.784853 0.150243 0.632149 0 CFG=2
M  V30 20 C -1.815424 -0.717435 1.863466 0
M  V30 21 C -1.916574 -0.728270 -0.634040 0 CFG=1
M  V30 22 O -2.051663 0.255921 -1.648498 0
M  V30 23 C -3.128833 -1.548571 -0.679602 0
M  V30 24 C -2.913084 -3.001688 -1.051156 0
M  V30 25 C -1.867008 -2.984483 -2.129185 0
M  V30 26 O -2.047356 -3.236716 -3.302045 0
M  V30 27 C -0.520679 -2.605866 -1.573679 0
M  V30 28 H 4.641968 -3.433334 3.572552 0
M  V30 29 H 3.677296 -4.628087 3.142068 0
M  V30 30 H 1.879056 -2.572246 3.913439 0
M  V30 31 H -0.261329 -1.476382 3.968913 0
M  V30 32 H 2.843053 -2.307172 -0.761566 0
M  V30 33 H 1.310184 -0.656871 -1.606309 0
M  V30 34 H -0.183529 -0.202593 -2.410188 0
M  V30 35 H -0.297741 1.749777 -1.285614 0
M  V30 36 H 1.159433 1.282205 -0.403208 0
M  V30 37 H 1.050944 1.187277 1.872190 0
M  V30 38 H -0.640928 1.339294 2.582884 0
M  V30 39 H -0.864383 3.452121 0.950278 0
M  V30 40 H 0.212499 4.860157 2.707089 0
M  V30 41 H 0.931347 3.348014 3.446020 0
M  V30 42 H 1.533653 4.418819 0.516852 0
M  V30 43 H 2.246613 2.916489 1.352838 0
M  V30 44 H -2.708234 0.763942 0.638026 0
M  V30 45 H -2.024747 -0.072783 2.735628 0
M  V30 46 H -2.646846 -1.456447 1.884495 0
M  V30 47 H -2.810211 0.100629 -2.234887 0
M  V30 48 H -3.860669 -1.198307 -1.475638 0
M  V30 49 H -3.775717 -1.561023 0.222791 0
M  V30 50 H -2.526151 -3.565577 -0.204368 0
M  V30 51 H -3.809687 -3.454546 -1.517636 0
M  V30 52 H -0.264176 -3.477943 -0.901654 0
M  V30 53 H 0.266211 -2.616202 -2.346504 0
M  V30 END ATOM
M  V30 BEGIN BOND
M  V30 1 1 1 2
M  V30 2 2 2 3
M  V30 3 1 2 4
M  V30 4 2 4 5
M  V30 5 1 5 6
M  V30 6 2 6 7
M  V30 7 1 7 8
M  V30 8 2 8 9
M  V30 9 1 9 10
M  V30 10 1 8 11
M  V30 11 1 11 12 CFG=3
M  V30 12 1 12 13
M  V30 13 1 13 14
M  V30 14 1 14 15
M  V30 15 1 15 16
M  V30 16 1 16 17
M  V30 17 1 17 18
M  V30 18 1 14 19
M  V30 19 1 19 20
M  V30 20 1 19 21
M  V30 21 1 21 22 CFG=3
M  V30 22 1 21 23
M  V30 23 1 23 24
M  V30 24 1 24 25
M  V30 25 2 25 26
M  V30 26 1 25 27
M  V30 27 1 9 4
M  V30 28 1 21 11
M  V30 29 1 20 7
M  V30 30 1 27 11
M  V30 31 1 18 16
M  V30 32 1 1 28
M  V30 33 1 1 29
M  V30 34 1 5 30
M  V30 35 1 6 31
M  V30 36 1 10 32
M  V30 37 1 12 33
M  V30 38 1 12 34
M  V30 39 1 13 35
M  V30 40 1 13 36
M  V30 41 1 15 37
M  V30 42 1 15 38
M  V30 43 1 16 39
M  V30 44 1 17 40
M  V30 45 1 17 41
M  V30 46 1 18 42
M  V30 47 1 18 43
M  V30 48 1 19 44 CFG=1
M  V30 49 1 20 45
M  V30 50 1 20 46
M  V30 51 1 22 47
M  V30 52 1 23 48
M  V30 53 1 23 49
M  V30 54 1 24 50
M  V30 55 1 24 51
M  V30 56 1 27 52
M  V30 57 1 27 53
M  V30 END BOND
M  V30 END CTAB
M  END
>  <Dataset>  (875) 
OralDrugs

>  <Ligand_Instance>  (875) 
nan

>  <PDB_ID>  (875) 
nan

>  <Standardized_SMILES>  (875) 
NC(=O)c1ccc2c(c1O)[C@]13CCN(CC4CC4)[C@H](C2)[C@]1(O)CCC(=O)C3

>  <Name>  (875) 
Samidorphan

>  <Pocket>  (875) 
nan

>  <ATP_Site>  (875) 
nan

>  <Peripheral>  (875) 
nan

>  <Num_H_Atoms_ProtBoundConf>  (875) 
nan

>  <Num_Resolved_Atoms>  (875) 
nan

>  <Num_Not_Resolved_Atoms>  (875) 
nan

$$$$
CHEMBL1201774
     RDKit          3D

  0  0  0  0  0  0  0  0  0  0999 V3000
M  V30 BEGIN CTAB
M  V30 COUNTS 32 33 0 0 0
M  V30 BEGIN ATOM
M  V30 1 C -0.445643 -3.727353 2.127222 0
M  V30 2 C 0.317748 -2.742722 2.947273 0 CFG=2
M  V30 3 O -0.589094 -1.836872 3.488184 0
M  V30 4 C 1.484435 -2.102404 2.290466 0 CFG=2
M  V30 5 O 2.145173 -1.343812 3.252997 0
M  V30 6 C 1.190808 -1.218723 1.130693 0 CFG=1
M  V30 7 C 0.713173 -1.938643 -0.107664 0
M  V30 8 N 0.918965 -1.000503 -1.214672 0
M  V30 9 C 0.275873 0.266675 -1.026700 0
M  V30 10 N -0.084472 1.057677 -2.077534 0
M  V30 11 C -0.690241 2.247912 -1.852512 0
M  V30 12 N -1.063786 3.068106 -2.944688 0
M  V30 13 N -0.954075 2.685438 -0.600120 0
M  V30 14 C -0.612849 1.930840 0.474405 0
M  V30 15 O -0.844678 2.311220 1.633032 0
M  V30 16 C 0.013589 0.698320 0.265590 0
M  V30 17 N 0.368228 -0.088854 1.423609 0
M  V30 18 H -1.394017 -3.243772 1.764527 0
M  V30 19 H -0.802272 -4.553107 2.777711 0
M  V30 20 H 0.124810 -4.179212 1.302493 0
M  V30 21 H 0.729412 -3.285575 3.837139 0
M  V30 22 H -1.513658 -2.064864 3.272114 0
M  V30 23 H 2.169072 -2.900992 1.955049 0
M  V30 24 H 1.453672 -0.967481 3.859427 0
M  V30 25 H 2.189756 -0.783764 0.826724 0
M  V30 26 H -0.345426 -2.189809 -0.119194 0
M  V30 27 H 1.346965 -2.825955 -0.304380 0
M  V30 28 H 1.460969 -1.125877 -2.107490 0
M  V30 29 H -1.008851 4.107022 -3.061793 0
M  V30 30 H -1.469345 2.631762 -3.812693 0
M  V30 31 H -1.416645 3.590088 -0.367893 0
M  V30 32 H 0.030287 0.180936 2.376049 0
M  V30 END ATOM
M  V30 BEGIN BOND
M  V30 1 1 1 2
M  V30 2 1 2 3
M  V30 3 1 2 4
M  V30 4 1 4 5
M  V30 5 1 4 6
M  V30 6 1 6 7
M  V30 7 1 7 8
M  V30 8 1 8 9
M  V30 9 1 9 10
M  V30 10 2 10 11
M  V30 11 1 11 12
M  V30 12 1 11 13
M  V30 13 1 13 14
M  V30 14 2 14 15
M  V30 15 1 14 16
M  V30 16 1 16 17
M  V30 17 1 17 6
M  V30 18 2 16 9
M  V30 19 1 1 18
M  V30 20 1 1 19
M  V30 21 1 1 20
M  V30 22 1 2 21 CFG=1
M  V30 23 1 3 22
M  V30 24 1 4 23 CFG=3
M  V30 25 1 5 24
M  V30 26 1 6 25 CFG=3
M  V30 27 1 7 26
M  V30 28 1 7 27
M  V30 29 1 8 28
M  V30 30 1 12 29
M  V30 31 1 12 30
M  V30 32 1 13 31
M  V30 33 1 17 32
M  V30 END BOND
M  V30 END CTAB
M  END
>  <Dataset>  (876) 
OralDrugs

>  <Ligand_Instance>  (876) 
nan

>  <PDB_ID>  (876) 
nan

>  <Standardized_SMILES>  (876) 
C[C@H](O)[C@H](O)[C@H]1CNc2nc(N)[nH]c(=O)c2N1

>  <Name>  (876) 
Sapropterin

>  <Pocket>  (876) 
nan

>  <ATP_Site>  (876) 
nan

>  <Peripheral>  (876) 
nan

>  <Num_H_Atoms_ProtBoundConf>  (876) 
nan

>  <Num_Resolved_Atoms>  (876) 
nan

>  <Num_Not_Resolved_Atoms>  (876) 
nan

$$$$
CHEMBL1201775
     RDKit          3D

  0  0  0  0  0  0  0  0  0  0999 V3000
M  V30 BEGIN CTAB
M  V30 COUNTS 32 33 0 0 0
M  V30 BEGIN ATOM
M  V30 1 C -0.780232 -3.589518 1.974221 0
M  V30 2 C -0.149894 -2.630234 2.926309 0 CFG=2
M  V30 3 O -1.086906 -1.670294 3.280769 0
M  V30 4 C 1.164302 -2.068906 2.514957 0 CFG=2
M  V30 5 O 1.658816 -1.341865 3.613720 0
M  V30 6 C 1.150100 -1.151974 1.353860 0 CFG=1
M  V30 7 C 0.854589 -1.826966 0.034669 0
M  V30 8 N 1.183200 -0.846440 -1.011278 0
M  V30 9 C 0.477625 0.408302 -0.922438 0
M  V30 10 N 0.209921 1.181870 -2.013718 0
M  V30 11 C -0.458843 2.342859 -1.822527 0
M  V30 12 N -0.735581 3.146286 -2.964885 0
M  V30 13 N -0.846823 2.720291 -0.591899 0
M  V30 14 C -0.618459 2.010359 0.528218 0
M  V30 15 O -0.980022 2.362690 1.672760 0
M  V30 16 C 0.068398 0.812443 0.352701 0
M  V30 17 N 0.341569 0.014289 1.499472 0
M  V30 18 H -1.665001 -3.149589 1.446821 0
M  V30 19 H -1.213863 -4.466412 2.520499 0
M  V30 20 H -0.027822 -4.023794 1.293753 0
M  V30 21 H 0.053069 -3.189791 3.881309 0
M  V30 22 H -1.857509 -2.157982 3.674978 0
M  V30 23 H 1.863579 -2.888093 2.330928 0
M  V30 24 H 0.856259 -0.846858 3.971930 0
M  V30 25 H 2.208013 -0.778671 1.241654 0
M  V30 26 H -0.190571 -2.091922 -0.123847 0
M  V30 27 H 1.536807 -2.679433 -0.157306 0
M  V30 28 H 1.858911 -0.933227 -1.812018 0
M  V30 29 H 0.542081 0.824875 -2.939231 0
M  V30 30 H -1.536175 3.821179 -2.957641 0
M  V30 31 H -0.142928 3.073074 -3.826449 0
M  V30 32 H -0.038726 0.269156 2.437084 0
M  V30 END ATOM
M  V30 BEGIN BOND
M  V30 1 1 1 2
M  V30 2 1 2 3
M  V30 3 1 2 4
M  V30 4 1 4 5
M  V30 5 1 4 6
M  V30 6 1 6 7
M  V30 7 1 7 8
M  V30 8 1 8 9
M  V30 9 1 9 10
M  V30 10 1 10 11
M  V30 11 1 11 12
M  V30 12 2 11 13
M  V30 13 1 13 14
M  V30 14 2 14 15
M  V30 15 1 14 16
M  V30 16 1 16 17
M  V30 17 1 17 6
M  V30 18 2 16 9
M  V30 19 1 1 18
M  V30 20 1 1 19
M  V30 21 1 1 20
M  V30 22 1 2 21 CFG=1
M  V30 23 1 3 22
M  V30 24 1 4 23 CFG=3
M  V30 25 1 5 24
M  V30 26 1 6 25 CFG=3
M  V30 27 1 7 26
M  V30 28 1 7 27
M  V30 29 1 8 28
M  V30 30 1 10 29
M  V30 31 1 12 30
M  V30 32 1 12 31
M  V30 33 1 17 32
M  V30 END BOND
M  V30 END CTAB
M  END
>  <Dataset>  (877) 
OralDrugs

>  <Ligand_Instance>  (877) 
nan

>  <PDB_ID>  (877) 
nan

>  <Standardized_SMILES>  (877) 
C[C@H](O)[C@H](O)[C@H]1CNc2[nH]c(N)nc(=O)c2N1

>  <Name>  (877) 
Sapropterin Dihydrochloride

>  <Pocket>  (877) 
nan

>  <ATP_Site>  (877) 
nan

>  <Peripheral>  (877) 
nan

>  <Num_H_Atoms_ProtBoundConf>  (877) 
nan

>  <Num_Resolved_Atoms>  (877) 
nan

>  <Num_Not_Resolved_Atoms>  (877) 
nan

$$$$
CHEMBL114
     RDKit          3D

  0  0  0  0  0  0  0  0  0  0999 V3000
M  V30 BEGIN CTAB
M  V30 COUNTS 99 103 0 0 0
M  V30 BEGIN ATOM
M  V30 1 C 5.015457 -3.681659 -0.083116 0
M  V30 2 C 5.944753 -2.474671 -0.264026 0
M  V30 3 C 6.784892 -2.303365 0.993823 0
M  V30 4 C 6.893855 -2.854798 -1.380130 0
M  V30 5 N 5.227251 -1.295738 -0.632484 0
M  V30 6 C 4.238592 -0.808004 0.251301 0
M  V30 7 O 4.087067 -1.472570 1.324197 0
M  V30 8 C 3.339339 0.316054 0.200894 0 CFG=2
M  V30 9 C 2.208212 0.360363 1.185546 0
M  V30 10 C 1.626448 1.746194 1.098074 0 CFG=2
M  V30 11 C 0.160824 1.632185 0.737724 0
M  V30 12 C -0.577062 2.894726 1.146521 0
M  V30 13 C 0.387869 4.059933 1.026593 0
M  V30 14 C 1.388540 3.867292 -0.076673 0
M  V30 15 C 2.288664 2.661562 0.122496 0 CFG=2
M  V30 16 C 2.571864 2.064164 -1.233997 0
M  V30 17 N 2.822494 0.673672 -1.052696 0
M  V30 18 C 2.813505 -0.155360 -2.154582 0
M  V30 19 C 1.551608 -0.406418 -2.896492 0 CFG=1
M  V30 20 O 1.810490 -1.239705 -4.026277 0
M  V30 21 C 0.490386 -1.066162 -2.058425 0 CFG=2
M  V30 22 C 0.952043 -2.501966 -1.753059 0
M  V30 23 C -0.109956 -3.183266 -0.921511 0
M  V30 24 C -0.209349 -3.198978 0.451860 0
M  V30 25 C -1.240262 -3.869960 1.069879 0
M  V30 26 C -2.200193 -4.541919 0.371043 0
M  V30 27 C -2.138336 -4.551869 -1.017111 0
M  V30 28 C -1.095782 -3.872992 -1.627527 0
M  V30 29 N -0.765268 -1.228144 -2.763518 0
M  V30 30 C -1.880607 -0.908299 -1.952250 0
M  V30 31 O -1.980971 -0.513731 -0.738686 0
M  V30 32 C -3.380229 -0.844544 -2.000961 0 CFG=2
M  V30 33 C -3.836142 0.232439 -2.923929 0
M  V30 34 C -3.382026 0.057497 -4.319904 0
M  V30 35 N -3.907766 1.147152 -5.107589 0
M  V30 36 O -2.916456 -0.233710 -5.448783 0
M  V30 37 N -3.858489 -0.471639 -0.660489 0
M  V30 38 C -4.762377 -1.433155 -0.101206 0
M  V30 39 O -5.127264 -2.487724 -0.678636 0
M  V30 40 C -5.273364 -1.120407 1.248563 0
M  V30 41 C -6.168388 -2.021184 1.842086 0
M  V30 42 C -6.715741 -1.843840 3.106183 0
M  V30 43 C -6.307183 -0.686010 3.759566 0
M  V30 44 C -6.801432 -0.421167 5.039296 0
M  V30 45 C -6.390909 0.718771 5.674950 0
M  V30 46 C -5.511722 1.598669 5.085949 0
M  V30 47 C -4.998454 1.362694 3.805484 0
M  V30 48 C -5.426760 0.210106 3.187744 0
M  V30 49 N -4.919370 -0.014700 1.940916 0
M  V30 50 H 4.311855 -3.723380 -0.927862 0
M  V30 51 H 5.695123 -4.579018 -0.165520 0
M  V30 52 H 4.548093 -3.719999 0.903358 0
M  V30 53 H 7.483047 -1.466804 0.814476 0
M  V30 54 H 7.377795 -3.262257 1.069686 0
M  V30 55 H 6.204655 -2.254701 1.913365 0
M  V30 56 H 7.053503 -3.952987 -1.434272 0
M  V30 57 H 6.606885 -2.402080 -2.360838 0
M  V30 58 H 7.892771 -2.421341 -1.152452 0
M  V30 59 H 5.365622 -0.724649 -1.492086 0
M  V30 60 H 4.008164 1.202919 0.582060 0
M  V30 61 H 2.550050 0.192831 2.230463 0
M  V30 62 H 1.506935 -0.455559 0.956578 0
M  V30 63 H 1.695359 2.256214 2.090970 0
M  V30 64 H -0.295231 0.706089 1.100546 0
M  V30 65 H 0.149011 1.641280 -0.386209 0
M  V30 66 H -1.470458 3.070085 0.523574 0
M  V30 67 H -0.867918 2.794407 2.202519 0
M  V30 68 H -0.230899 4.939109 0.729831 0
M  V30 69 H 0.862337 4.308629 1.979623 0
M  V30 70 H 0.872699 3.815751 -1.056156 0
M  V30 71 H 1.996762 4.818176 -0.091508 0
M  V30 72 H 3.238642 3.056448 0.542555 0
M  V30 73 H 1.765039 2.340271 -1.907469 0
M  V30 74 H 3.503384 2.550463 -1.644180 0
M  V30 75 H 3.601273 0.144148 -2.900328 0
M  V30 76 H 3.182568 -1.174673 -1.812706 0
M  V30 77 H 1.087129 0.489159 -3.330714 0
M  V30 78 H 2.474597 -0.757471 -4.576816 0
M  V30 79 H 0.404922 -0.570622 -1.110728 0
M  V30 80 H 1.893225 -2.515007 -1.176685 0
M  V30 81 H 1.097414 -3.096273 -2.668053 0
M  V30 82 H 0.561803 -2.660441 0.967569 0
M  V30 83 H -1.226720 -3.819926 2.150946 0
M  V30 84 H -2.980042 -5.046209 0.917413 0
M  V30 85 H -2.892792 -5.080944 -1.566257 0
M  V30 86 H -1.122426 -3.931733 -2.706414 0
M  V30 87 H -1.217360 -1.492219 -3.656862 0
M  V30 88 H -3.813045 -1.796937 -2.307554 0
M  V30 89 H -3.524571 1.243749 -2.581499 0
M  V30 90 H -4.947374 0.246963 -2.912957 0
M  V30 91 H -4.401777 2.048833 -5.261571 0
M  V30 92 H -4.413623 2.052306 -5.173554 0
M  V30 93 H -3.570970 0.400291 -0.171075 0
M  V30 94 H -6.479932 -2.921772 1.323617 0
M  V30 95 H -7.399811 -2.557859 3.529762 0
M  V30 96 H -7.497587 -1.106058 5.518621 0
M  V30 97 H -6.719854 1.001377 6.660787 0
M  V30 98 H -5.163123 2.515416 5.562602 0
M  V30 99 H -4.308493 2.046236 3.333924 0
M  V30 END ATOM
M  V30 BEGIN BOND
M  V30 1 1 1 2
M  V30 2 1 2 3
M  V30 3 1 2 4
M  V30 4 1 2 5
M  V30 5 1 5 6
M  V30 6 2 6 7
M  V30 7 1 6 8
M  V30 8 1 8 9
M  V30 9 1 9 10
M  V30 10 1 10 11
M  V30 11 1 11 12
M  V30 12 1 12 13
M  V30 13 1 13 14
M  V30 14 1 14 15
M  V30 15 1 15 16
M  V30 16 1 16 17
M  V30 17 1 17 18
M  V30 18 1 18 19
M  V30 19 1 19 20
M  V30 20 1 19 21
M  V30 21 1 21 22
M  V30 22 1 22 23
M  V30 23 2 23 24
M  V30 24 1 24 25
M  V30 25 2 25 26
M  V30 26 1 26 27
M  V30 27 2 27 28
M  V30 28 1 21 29
M  V30 29 1 29 30
M  V30 30 2 30 31
M  V30 31 1 30 32
M  V30 32 1 32 33
M  V30 33 1 33 34
M  V30 34 1 34 35
M  V30 35 2 34 36
M  V30 36 1 32 37
M  V30 37 1 37 38
M  V30 38 2 38 39
M  V30 39 1 38 40
M  V30 40 2 40 41
M  V30 41 1 41 42
M  V30 42 2 42 43
M  V30 43 1 43 44
M  V30 44 2 44 45
M  V30 45 1 45 46
M  V30 46 2 46 47
M  V30 47 1 47 48
M  V30 48 2 48 49
M  V30 49 1 17 8
M  V30 50 1 28 23
M  V30 51 1 49 40
M  V30 52 1 15 10
M  V30 53 1 48 43
M  V30 54 1 1 50
M  V30 55 1 1 51
M  V30 56 1 1 52
M  V30 57 1 3 53
M  V30 58 1 3 54
M  V30 59 1 3 55
M  V30 60 1 4 56
M  V30 61 1 4 57
M  V30 62 1 4 58
M  V30 63 1 5 59
M  V30 64 1 8 60 CFG=1
M  V30 65 1 9 61
M  V30 66 1 9 62
M  V30 67 1 10 63 CFG=1
M  V30 68 1 11 64
M  V30 69 1 11 65
M  V30 70 1 12 66
M  V30 71 1 12 67
M  V30 72 1 13 68
M  V30 73 1 13 69
M  V30 74 1 14 70
M  V30 75 1 14 71
M  V30 76 1 15 72 CFG=1
M  V30 77 1 16 73
M  V30 78 1 16 74
M  V30 79 1 18 75
M  V30 80 1 18 76
M  V30 81 1 19 77 CFG=3
M  V30 82 1 20 78
M  V30 83 1 21 79 CFG=1
M  V30 84 1 22 80
M  V30 85 1 22 81
M  V30 86 1 24 82
M  V30 87 1 25 83
M  V30 88 1 26 84
M  V30 89 1 27 85
M  V30 90 1 28 86
M  V30 91 1 29 87
M  V30 92 1 32 88 CFG=3
M  V30 93 1 33 89
M  V30 94 1 33 90
M  V30 95 1 35 91
M  V30 96 1 35 92
M  V30 97 1 37 93
M  V30 98 1 41 94
M  V30 99 1 42 95
M  V30 100 1 44 96
M  V30 101 1 45 97
M  V30 102 1 46 98
M  V30 103 1 47 99
M  V30 END BOND
M  V30 END CTAB
M  END
>  <Dataset>  (878) 
OralDrugs

>  <Ligand_Instance>  (878) 
nan

>  <PDB_ID>  (878) 
nan

>  <Standardized_SMILES>  (878) 
CC(C)(C)NC(=O)[C@@H]1C[C@@H]2CCCC[C@@H]2CN1C[C@@H](O)[C@H](Cc1ccccc1)NC(=O)[C@H](CC(N)=O)NC(=O)c1ccc2ccccc2n1

>  <Name>  (878) 
Saquinavir

>  <Pocket>  (878) 
nan

>  <ATP_Site>  (878) 
nan

>  <Peripheral>  (878) 
nan

>  <Num_H_Atoms_ProtBoundConf>  (878) 
nan

>  <Num_Resolved_Atoms>  (878) 
nan

>  <Num_Not_Resolved_Atoms>  (878) 
nan

$$$$
CHEMBL2364632
     RDKit          3D

  0  0  0  0  0  0  0  0  0  0999 V3000
M  V30 BEGIN CTAB
M  V30 COUNTS 64 67 0 0 0
M  V30 BEGIN ATOM
M  V30 1 C 0.283797 1.968187 5.431750 0
M  V30 2 O 0.718832 3.086413 4.714570 0
M  V30 3 N 1.379709 2.662809 3.644690 0
M  V30 4 C 2.769718 2.387657 3.824875 0
M  V30 5 C 1.062623 3.291682 2.402580 0
M  V30 6 C 1.942316 2.636941 1.368344 0
M  V30 7 C 3.055158 3.363490 0.921985 0
M  V30 8 C 3.952984 2.901976 -0.016597 0
M  V30 9 C 3.697827 1.642238 -0.517924 0
M  V30 10 O 4.532698 1.090415 -1.458405 0
M  V30 11 C 2.604285 0.937332 -0.074318 0
M  V30 12 C 1.697076 1.376961 0.859283 0
M  V30 13 C 0.504870 0.752138 1.419102 0
M  V30 14 C 0.233278 -0.619135 0.897259 0 CFG=1
M  V30 15 C -1.143968 -0.692929 0.232837 0
M  V30 16 C -1.434009 -2.131268 -0.112775 0 CFG=1
M  V30 17 C -2.075167 -2.234149 -1.491560 0 CFG=2
M  V30 18 N -2.926441 -1.113737 -1.749020 0
M  V30 19 C -4.016940 -0.938380 -0.850835 0
M  V30 20 C -3.233856 -0.914135 -3.127125 0
M  V30 21 C -2.795507 -3.533014 -1.520997 0
M  V30 22 O -4.139484 -3.744508 -1.798733 0
M  V30 23 C -1.942399 -4.508718 -1.232934 0
M  V30 24 C -2.459307 -5.889764 -1.209446 0
M  V30 25 N -3.837992 -6.082785 -1.496947 0
M  V30 26 O -1.720662 -6.870716 -0.946600 0
M  V30 27 C -0.529739 -4.237824 -0.942783 0
M  V30 28 O 0.307604 -5.058549 -1.415393 0
M  V30 29 C -0.218089 -3.015818 -0.115167 0 CFG=2
M  V30 30 O -0.002689 -3.536105 1.173777 0
M  V30 31 C 0.981155 -2.298894 -0.636385 0
M  V30 32 O 1.818766 -2.847775 -1.596662 0
M  V30 33 C 1.203246 -1.093432 -0.123528 0
M  V30 34 C 2.378912 -0.397421 -0.637181 0
M  V30 35 O 3.125340 -0.924507 -1.496664 0
M  V30 36 H 0.602875 1.026798 4.937879 0
M  V30 37 H -0.822416 1.914141 5.483352 0
M  V30 38 H 0.701277 1.943375 6.458063 0
M  V30 39 H 3.375285 3.284944 3.582996 0
M  V30 40 H 3.041235 1.533881 3.157807 0
M  V30 41 H 3.000325 2.085442 4.863379 0
M  V30 42 H 1.326139 4.363932 2.466669 0
M  V30 43 H 0.007627 3.247952 2.122981 0
M  V30 44 H 3.246728 4.368093 1.330533 0
M  V30 45 H 4.794913 3.463917 -0.347490 0
M  V30 46 H 5.315930 0.553220 -1.169940 0
M  V30 47 H 0.463234 0.773759 2.526291 0
M  V30 48 H -0.369166 1.405109 1.112304 0
M  V30 49 H 0.236286 -1.311966 1.794145 0
M  V30 50 H -1.919947 -0.222960 0.848545 0
M  V30 51 H -1.071139 -0.107126 -0.706354 0
M  V30 52 H -2.163796 -2.528663 0.617507 0
M  V30 53 H -1.290692 -2.272865 -2.247131 0
M  V30 54 H -4.048460 0.150649 -0.567581 0
M  V30 55 H -3.828084 -1.482319 0.080743 0
M  V30 56 H -5.008162 -1.165963 -1.296692 0
M  V30 57 H -3.655490 0.118382 -3.228452 0
M  V30 58 H -2.305907 -0.961544 -3.718732 0
M  V30 59 H -3.943800 -1.663393 -3.537137 0
M  V30 60 H -4.870896 -3.744099 -1.100128 0
M  V30 61 H -4.528104 -6.424533 -0.788170 0
M  V30 62 H -4.532554 -6.422173 -0.799375 0
M  V30 63 H 0.969002 -3.692953 1.339151 0
M  V30 64 H 2.714279 -3.233094 -1.404520 0
M  V30 END ATOM
M  V30 BEGIN BOND
M  V30 1 1 1 2
M  V30 2 1 2 3
M  V30 3 1 3 4
M  V30 4 1 3 5
M  V30 5 1 5 6
M  V30 6 2 6 7
M  V30 7 1 7 8
M  V30 8 2 8 9
M  V30 9 1 9 10
M  V30 10 1 9 11
M  V30 11 2 11 12
M  V30 12 1 12 13
M  V30 13 1 13 14
M  V30 14 1 14 15
M  V30 15 1 15 16
M  V30 16 1 16 17
M  V30 17 1 17 18
M  V30 18 1 18 19
M  V30 19 1 18 20
M  V30 20 1 17 21
M  V30 21 1 21 22
M  V30 22 2 21 23
M  V30 23 1 23 24
M  V30 24 1 24 25
M  V30 25 2 24 26
M  V30 26 1 23 27
M  V30 27 2 27 28
M  V30 28 1 27 29
M  V30 29 1 29 30 CFG=1
M  V30 30 1 29 31
M  V30 31 1 31 32
M  V30 32 2 31 33
M  V30 33 1 33 34
M  V30 34 2 34 35
M  V30 35 1 12 6
M  V30 36 1 33 14
M  V30 37 1 34 11
M  V30 38 1 29 16
M  V30 39 1 1 36
M  V30 40 1 1 37
M  V30 41 1 1 38
M  V30 42 1 4 39
M  V30 43 1 4 40
M  V30 44 1 4 41
M  V30 45 1 5 42
M  V30 46 1 5 43
M  V30 47 1 7 44
M  V30 48 1 8 45
M  V30 49 1 10 46
M  V30 50 1 13 47
M  V30 51 1 13 48
M  V30 52 1 14 49 CFG=1
M  V30 53 1 15 50
M  V30 54 1 15 51
M  V30 55 1 16 52 CFG=1
M  V30 56 1 17 53 CFG=3
M  V30 57 1 19 54
M  V30 58 1 19 55
M  V30 59 1 19 56
M  V30 60 1 20 57
M  V30 61 1 20 58
M  V30 62 1 20 59
M  V30 63 1 22 60
M  V30 64 1 25 61
M  V30 65 1 25 62
M  V30 66 1 30 63
M  V30 67 1 32 64
M  V30 END BOND
M  V30 END CTAB
M  END
>  <Dataset>  (879) 
OralDrugs

>  <Ligand_Instance>  (879) 
nan

>  <PDB_ID>  (879) 
nan

>  <Standardized_SMILES>  (879) 
CON(C)Cc1ccc(O)c2c1C[C@H]1C[C@H]3[C@H](N(C)C)C(O)=C(C(N)=O)C(=O)[C@@]3(O)C(O)=C1C2=O

>  <Name>  (879) 
Sarecycline

>  <Pocket>  (879) 
nan

>  <ATP_Site>  (879) 
nan

>  <Peripheral>  (879) 
nan

>  <Num_H_Atoms_ProtBoundConf>  (879) 
nan

>  <Num_Resolved_Atoms>  (879) 
nan

>  <Num_Not_Resolved_Atoms>  (879) 
nan

$$$$
CHEMBL385517
     RDKit          3D

  0  0  0  0  0  0  0  0  0  0999 V3000
M  V30 BEGIN CTAB
M  V30 COUNTS 48 52 0 0 0
M  V30 BEGIN ATOM
M  V30 1 N -0.681528 -3.904367 1.903020 0
M  V30 2 C -0.707077 -3.829153 0.747611 0
M  V30 3 C -0.750822 -3.718402 -0.715973 0 CFG=2
M  V30 4 C 0.155341 -4.785791 -1.254249 0
M  V30 5 C 1.244172 -4.137127 -2.037713 0 CFG=2
M  V30 6 C 2.185289 -3.171632 -1.443557 0
M  V30 7 C 0.904498 -2.712666 -2.102696 0 CFG=2
M  V30 8 N -0.163861 -2.445235 -1.159497 0
M  V30 9 C -0.390716 -1.072956 -0.886994 0
M  V30 10 O 0.542352 -0.778699 -1.678149 0
M  V30 11 C -1.367563 -0.446414 -0.006595 0 CFG=1
M  V30 12 N -2.251103 -1.370068 0.676232 0
M  V30 13 C -0.749336 0.542302 0.957311 0
M  V30 14 C -0.049396 1.663534 0.221910 0
M  V30 15 C 0.697000 2.532956 1.169952 0
M  V30 16 C -0.276534 3.165342 2.136217 0
M  V30 17 C -1.022977 2.065071 2.846897 0
M  V30 18 C -0.017785 1.288461 3.670132 0
M  V30 19 C 1.009570 0.701500 2.736560 0
M  V30 20 O 1.874137 -0.079550 3.477677 0
M  V30 21 C 1.724846 1.761324 1.935516 0
M  V30 22 C 0.349070 -0.213998 1.703787 0
M  V30 23 C -1.746127 1.146507 1.886496 0
M  V30 24 H -1.754205 -3.873036 -1.122360 0
M  V30 25 H 0.639336 -5.393896 -0.465609 0
M  V30 26 H -0.367728 -5.489527 -1.934728 0
M  V30 27 H 1.544867 -4.585144 -3.026380 0
M  V30 28 H 3.140751 -2.990533 -1.977266 0
M  V30 29 H 2.298394 -3.081148 -0.339661 0
M  V30 30 H 1.024694 -2.132055 -3.018774 0
M  V30 31 H -2.041037 0.174214 -0.655174 0
M  V30 32 H -3.057623 -0.776984 1.039700 0
M  V30 33 H -2.721050 -1.930668 -0.098647 0
M  V30 34 H -0.871243 2.298054 -0.217863 0
M  V30 35 H 0.535434 1.318269 -0.641756 0
M  V30 36 H 1.212557 3.312175 0.590994 0
M  V30 37 H 0.360501 3.661553 2.916071 0
M  V30 38 H -0.927167 3.925355 1.699710 0
M  V30 39 H -1.779008 2.484719 3.531825 0
M  V30 40 H 0.520896 2.031600 4.301542 0
M  V30 41 H -0.440526 0.461519 4.241324 0
M  V30 42 H 1.753137 -1.036258 3.306506 0
M  V30 43 H 2.352651 1.202152 1.192050 0
M  V30 44 H 2.408967 2.383388 2.512172 0
M  V30 45 H -0.006642 -1.146653 2.155381 0
M  V30 46 H 1.138775 -0.364952 0.936624 0
M  V30 47 H -2.431176 1.767518 1.280416 0
M  V30 48 H -2.300982 0.412187 2.504732 0
M  V30 END ATOM
M  V30 BEGIN BOND
M  V30 1 3 1 2
M  V30 2 1 2 3
M  V30 3 1 3 4
M  V30 4 1 4 5
M  V30 5 1 5 6
M  V30 6 1 6 7
M  V30 7 1 7 8
M  V30 8 1 8 9
M  V30 9 2 9 10
M  V30 10 1 9 11
M  V30 11 1 11 12
M  V30 12 1 11 13
M  V30 13 1 13 14
M  V30 14 1 14 15
M  V30 15 1 15 16
M  V30 16 1 16 17
M  V30 17 1 17 18
M  V30 18 1 18 19
M  V30 19 1 19 20
M  V30 20 1 19 21
M  V30 21 1 19 22
M  V30 22 1 17 23
M  V30 23 1 8 3
M  V30 24 1 22 13
M  V30 25 1 7 5
M  V30 26 1 23 13
M  V30 27 1 21 15
M  V30 28 1 3 24 CFG=3
M  V30 29 1 4 25
M  V30 30 1 4 26
M  V30 31 1 5 27 CFG=3
M  V30 32 1 6 28
M  V30 33 1 6 29
M  V30 34 1 7 30 CFG=3
M  V30 35 1 11 31 CFG=3
M  V30 36 1 12 32
M  V30 37 1 12 33
M  V30 38 1 14 34
M  V30 39 1 14 35
M  V30 40 1 15 36
M  V30 41 1 16 37
M  V30 42 1 16 38
M  V30 43 1 17 39
M  V30 44 1 18 40
M  V30 45 1 18 41
M  V30 46 1 20 42
M  V30 47 1 21 43
M  V30 48 1 21 44
M  V30 49 1 22 45
M  V30 50 1 22 46
M  V30 51 1 23 47
M  V30 52 1 23 48
M  V30 END BOND
M  V30 END CTAB
M  END
>  <Dataset>  (880) 
OralDrugs

>  <Ligand_Instance>  (880) 
nan

>  <PDB_ID>  (880) 
nan

>  <Standardized_SMILES>  (880) 
N#C[C@@H]1C[C@@H]2C[C@@H]2N1C(=O)[C@@H](N)C12CC3CC(CC(O)(C3)C1)C2

>  <Name>  (880) 
Saxagliptin Anhydrous

>  <Pocket>  (880) 
nan

>  <ATP_Site>  (880) 
nan

>  <Peripheral>  (880) 
nan

>  <Num_H_Atoms_ProtBoundConf>  (880) 
nan

>  <Num_Resolved_Atoms>  (880) 
nan

>  <Num_Not_Resolved_Atoms>  (880) 
nan

$$$$
CHEMBL498847
     RDKit          3D

  0  0  0  0  0  0  0  0  0  0999 V3000
M  V30 BEGIN CTAB
M  V30 COUNTS 24 24 0 0 0
M  V30 BEGIN ATOM
M  V30 1 C 1.673203 1.989255 1.945267 0
M  V30 2 C 1.370556 0.549942 2.157288 0
M  V30 3 N 1.283946 -0.010339 3.377170 0
M  V30 4 C 0.995554 -1.335583 3.214995 0
M  V30 5 C 0.923119 -1.499409 1.848638 0
M  V30 6 N 0.642456 -2.760066 1.299802 0 CHG=1 VAL=4
M  V30 7 O 0.522608 -3.196808 0.148299 0
M  V30 8 O 0.430744 -3.860145 2.096980 0 CHG=-1 VAL=1
M  V30 9 N 1.150132 -0.353988 1.184832 0
M  V30 10 C 1.161101 -0.093899 -0.217864 0
M  V30 11 C -0.147898 0.329636 -0.809679 0
M  V30 12 C -1.269691 -0.631199 -0.674893 0
M  V30 13 O -0.476916 1.580301 -0.249731 0
M  V30 14 H 2.434189 2.277498 2.707121 0
M  V30 15 H 0.772238 2.635987 2.081573 0
M  V30 16 H 2.151885 2.128811 0.973007 0
M  V30 17 H 0.864866 -2.047788 4.016694 0
M  V30 18 H 1.950107 0.657007 -0.424782 0
M  V30 19 H 1.519123 -1.006530 -0.780196 0
M  V30 20 H -0.011855 0.523099 -1.893467 0
M  V30 21 H -2.216781 -0.061993 -0.908732 0
M  V30 22 H -1.390730 -1.112709 0.311756 0
M  V30 23 H -1.254589 -1.442656 -1.431923 0
M  V30 24 H -0.225229 2.333323 -0.818142 0
M  V30 END ATOM
M  V30 BEGIN BOND
M  V30 1 1 1 2
M  V30 2 2 2 3
M  V30 3 1 3 4
M  V30 4 2 4 5
M  V30 5 1 5 6
M  V30 6 2 6 7
M  V30 7 1 6 8
M  V30 8 1 5 9
M  V30 9 1 9 10
M  V30 10 1 10 11
M  V30 11 1 11 12
M  V30 12 1 11 13
M  V30 13 1 9 2
M  V30 14 1 1 14
M  V30 15 1 1 15
M  V30 16 1 1 16
M  V30 17 1 4 17
M  V30 18 1 10 18
M  V30 19 1 10 19
M  V30 20 1 11 20
M  V30 21 1 12 21
M  V30 22 1 12 22
M  V30 23 1 12 23
M  V30 24 1 13 24
M  V30 END BOND
M  V30 END CTAB
M  END
>  <Dataset>  (881) 
OralDrugs

>  <Ligand_Instance>  (881) 
nan

>  <PDB_ID>  (881) 
nan

>  <Standardized_SMILES>  (881) 
Cc1ncc([N+](=O)[O-])n1CC(C)O

>  <Name>  (881) 
Secnidazole

>  <Pocket>  (881) 
nan

>  <ATP_Site>  (881) 
nan

>  <Peripheral>  (881) 
nan

>  <Num_H_Atoms_ProtBoundConf>  (881) 
nan

>  <Num_Resolved_Atoms>  (881) 
nan

>  <Num_Not_Resolved_Atoms>  (881) 
nan

$$$$
CHEMBL972
     RDKit          3D

  0  0  0  0  0  0  0  0  0  0999 V3000
M  V30 BEGIN CTAB
M  V30 COUNTS 31 31 0 0 0
M  V30 BEGIN ATOM
M  V30 1 C -0.371119 -0.157407 4.096821 0
M  V30 2 C 0.335547 -0.888356 3.465453 0
M  V30 3 C 1.167327 -1.775013 2.692937 0
M  V30 4 N 0.980038 -1.631184 1.256498 0
M  V30 5 C 1.845001 -2.550111 0.538087 0
M  V30 6 C -0.398980 -1.756654 0.875958 0 CFG=2
M  V30 7 C -1.016784 -3.091231 1.095909 0
M  V30 8 C -0.581493 -1.292459 -0.540700 0
M  V30 9 C -0.165592 0.147506 -0.614698 0
M  V30 10 C 1.055006 0.670091 -0.907277 0
M  V30 11 C 1.252087 2.028906 -0.922687 0
M  V30 12 C 0.250443 2.937059 -0.649353 0
M  V30 13 C -0.983720 2.430679 -0.353135 0
M  V30 14 C -1.162565 1.068431 -0.342295 0
M  V30 15 H -0.989028 0.492695 4.660770 0
M  V30 16 H 0.987885 -2.840419 2.936212 0
M  V30 17 H 2.245044 -1.571351 2.893519 0
M  V30 18 H 1.264234 -3.062065 -0.224495 0
M  V30 19 H 2.325025 -3.282064 1.228753 0
M  V30 20 H 2.631162 -1.949791 0.047136 0
M  V30 21 H -0.964355 -1.032424 1.520025 0
M  V30 22 H -0.264032 -3.887273 0.921969 0
M  V30 23 H -1.884841 -3.219584 0.416844 0
M  V30 24 H -1.407222 -3.220726 2.132745 0
M  V30 25 H -1.655313 -1.369242 -0.842128 0
M  V30 26 H -0.006673 -1.891718 -1.251027 0
M  V30 27 H 1.824091 -0.048302 -1.120911 0
M  V30 28 H 2.271135 2.354253 -1.169572 0
M  V30 29 H 0.530062 3.987702 -0.693116 0
M  V30 30 H -1.774255 3.130736 -0.137893 0
M  V30 31 H -2.183480 0.745006 -0.094885 0
M  V30 END ATOM
M  V30 BEGIN BOND
M  V30 1 3 1 2
M  V30 2 1 2 3
M  V30 3 1 3 4
M  V30 4 1 4 5
M  V30 5 1 4 6
M  V30 6 1 6 7
M  V30 7 1 6 8
M  V30 8 1 8 9
M  V30 9 2 9 10
M  V30 10 1 10 11
M  V30 11 2 11 12
M  V30 12 1 12 13
M  V30 13 2 13 14
M  V30 14 1 14 9
M  V30 15 1 1 15
M  V30 16 1 3 16
M  V30 17 1 3 17
M  V30 18 1 5 18
M  V30 19 1 5 19
M  V30 20 1 5 20
M  V30 21 1 6 21 CFG=1
M  V30 22 1 7 22
M  V30 23 1 7 23
M  V30 24 1 7 24
M  V30 25 1 8 25
M  V30 26 1 8 26
M  V30 27 1 10 27
M  V30 28 1 11 28
M  V30 29 1 12 29
M  V30 30 1 13 30
M  V30 31 1 14 31
M  V30 END BOND
M  V30 END CTAB
M  END
>  <Dataset>  (882) 
OralDrugs

>  <Ligand_Instance>  (882) 
nan

>  <PDB_ID>  (882) 
nan

>  <Standardized_SMILES>  (882) 
C#CCN(C)[C@H](C)Cc1ccccc1

>  <Name>  (882) 
Selegiline

>  <Pocket>  (882) 
nan

>  <ATP_Site>  (882) 
nan

>  <Peripheral>  (882) 
nan

>  <Num_H_Atoms_ProtBoundConf>  (882) 
nan

>  <Num_Resolved_Atoms>  (882) 
nan

>  <Num_Not_Resolved_Atoms>  (882) 
nan

$$$$
CHEMBL238804
     RDKit          3D

  0  0  0  0  0  0  0  0  0  0999 V3000
M  V30 BEGIN CTAB
M  V30 COUNTS 67 69 0 0 0
M  V30 BEGIN ATOM
M  V30 1 C 3.809962 -2.508747 2.506530 0
M  V30 2 C 3.120706 -1.560410 1.548902 0
M  V30 3 C 4.155946 -0.956284 0.650074 0
M  V30 4 N 2.188763 -2.415064 0.753254 0
M  V30 5 C 2.929574 -3.419514 0.143145 0
M  V30 6 C 2.545386 -4.228083 -1.005254 0
M  V30 7 C 2.502040 -3.605145 -2.349047 0
M  V30 8 C 1.689426 -2.469029 -2.724695 0
M  V30 9 O 0.329741 -2.550977 -2.637084 0
M  V30 10 C -0.260609 -1.383249 -3.154947 0
M  V30 11 C 0.221423 -0.189307 -2.464043 0
M  V30 12 O 0.951644 0.351639 -1.570496 0
M  V30 13 N -0.417609 0.968376 -3.061950 0
M  V30 14 S -0.114201 2.588342 -2.551390 0
M  V30 15 C -1.217785 3.125659 -1.271708 0
M  V30 16 O 1.286207 2.689376 -1.953945 0
M  V30 17 O -0.135335 3.558243 -3.699312 0
M  V30 18 C 0.809471 -2.032907 0.895515 0
M  V30 19 C -0.269188 -2.729248 0.393299 0
M  V30 20 N -1.557627 -2.384592 0.562550 0
M  V30 21 C -1.831591 -1.284137 1.271685 0
M  V30 22 C -3.243838 -0.942339 1.448185 0
M  V30 23 C -3.579367 -1.027270 2.806350 0
M  V30 24 C -4.860292 -0.755977 3.245818 0
M  V30 25 C -5.833471 -0.393615 2.333589 0
M  V30 26 C -5.488141 -0.314273 1.002554 0
M  V30 27 C -4.213031 -0.580777 0.536306 0
M  V30 28 C -0.791051 -0.566595 1.785199 0
M  V30 29 C -1.162611 0.604645 2.558998 0
M  V30 30 C -1.900096 1.722599 2.248471 0
M  V30 31 C -2.121854 2.726160 3.157733 0
M  V30 32 C -1.602132 2.644125 4.437770 0
M  V30 33 C -0.846590 1.519018 4.788740 0
M  V30 34 C -0.638511 0.522647 3.852346 0
M  V30 35 N 0.482641 -0.933305 1.599185 0
M  V30 36 H 4.684391 -3.022605 2.058041 0
M  V30 37 H 3.135128 -3.301782 2.886842 0
M  V30 38 H 4.221935 -1.901381 3.340871 0
M  V30 39 H 2.575457 -0.781559 2.096998 0
M  V30 40 H 3.841558 -0.925880 -0.414427 0
M  V30 41 H 4.340687 0.078326 1.007842 0
M  V30 42 H 5.122893 -1.481490 0.782328 0
M  V30 43 H 3.940559 -2.943680 -0.169865 0
M  V30 44 H 3.324881 -4.094601 0.994534 0
M  V30 45 H 1.699273 -4.942783 -0.831268 0
M  V30 46 H 3.409507 -4.996036 -1.109497 0
M  V30 47 H 2.330998 -4.453023 -3.125962 0
M  V30 48 H 3.593254 -3.318180 -2.592792 0
M  V30 49 H 1.891076 -2.267777 -3.835977 0
M  V30 50 H 2.100266 -1.555508 -2.208415 0
M  V30 51 H -1.353584 -1.459167 -3.028410 0
M  V30 52 H -0.016526 -1.313980 -4.236710 0
M  V30 53 H -1.131371 0.989511 -3.857647 0
M  V30 54 H -0.830948 2.840690 -0.269748 0
M  V30 55 H -1.166909 4.245558 -1.288163 0
M  V30 56 H -2.247995 2.831697 -1.467270 0
M  V30 57 H -0.092634 -3.615398 -0.171426 0
M  V30 58 H -2.920745 -1.299357 3.638680 0
M  V30 59 H -5.174414 -0.807058 4.289870 0
M  V30 60 H -6.848011 -0.171150 2.624459 0
M  V30 61 H -6.193774 -0.037450 0.234676 0
M  V30 62 H -3.824386 -0.552931 -0.454394 0
M  V30 63 H -2.263771 1.675159 1.213173 0
M  V30 64 H -2.724339 3.539794 2.746156 0
M  V30 65 H -1.833231 3.496229 5.091793 0
M  V30 66 H -0.478049 1.531430 5.802637 0
M  V30 67 H -0.038416 -0.275814 4.275517 0
M  V30 END ATOM
M  V30 BEGIN BOND
M  V30 1 1 1 2
M  V30 2 1 2 3
M  V30 3 1 2 4
M  V30 4 1 4 5
M  V30 5 1 5 6
M  V30 6 1 6 7
M  V30 7 1 7 8
M  V30 8 1 8 9
M  V30 9 1 9 10
M  V30 10 1 10 11
M  V30 11 2 11 12
M  V30 12 1 11 13
M  V30 13 1 13 14
M  V30 14 1 14 15
M  V30 15 2 14 16
M  V30 16 2 14 17
M  V30 17 1 4 18
M  V30 18 2 18 19
M  V30 19 1 19 20
M  V30 20 2 20 21
M  V30 21 1 21 22
M  V30 22 2 22 23
M  V30 23 1 23 24
M  V30 24 2 24 25
M  V30 25 1 25 26
M  V30 26 2 26 27
M  V30 27 1 21 28
M  V30 28 1 28 29
M  V30 29 2 29 30
M  V30 30 1 30 31
M  V30 31 2 31 32
M  V30 32 1 32 33
M  V30 33 2 33 34
M  V30 34 2 28 35
M  V30 35 1 35 18
M  V30 36 1 27 22
M  V30 37 1 34 29
M  V30 38 1 1 36
M  V30 39 1 1 37
M  V30 40 1 1 38
M  V30 41 1 2 39
M  V30 42 1 3 40
M  V30 43 1 3 41
M  V30 44 1 3 42
M  V30 45 1 5 43
M  V30 46 1 5 44
M  V30 47 1 6 45
M  V30 48 1 6 46
M  V30 49 1 7 47
M  V30 50 1 7 48
M  V30 51 1 8 49
M  V30 52 1 8 50
M  V30 53 1 10 51
M  V30 54 1 10 52
M  V30 55 1 13 53
M  V30 56 1 15 54
M  V30 57 1 15 55
M  V30 58 1 15 56
M  V30 59 1 19 57
M  V30 60 1 23 58
M  V30 61 1 24 59
M  V30 62 1 25 60
M  V30 63 1 26 61
M  V30 64 1 27 62
M  V30 65 1 30 63
M  V30 66 1 31 64
M  V30 67 1 32 65
M  V30 68 1 33 66
M  V30 69 1 34 67
M  V30 END BOND
M  V30 END CTAB
M  END
>  <Dataset>  (883) 
OralDrugs

>  <Ligand_Instance>  (883) 
nan

>  <PDB_ID>  (883) 
nan

>  <Standardized_SMILES>  (883) 
CC(C)N(CCCCOCC(=O)NS(C)(=O)=O)c1cnc(-c2ccccc2)c(-c2ccccc2)n1

>  <Name>  (883) 
Selexipag

>  <Pocket>  (883) 
nan

>  <ATP_Site>  (883) 
nan

>  <Peripheral>  (883) 
nan

>  <Num_H_Atoms_ProtBoundConf>  (883) 
nan

>  <Num_Resolved_Atoms>  (883) 
nan

>  <Num_Not_Resolved_Atoms>  (883) 
nan

$$$$
CHEMBL3545185
     RDKit          3D

  0  0  0  0  0  0  0  0  0  0999 V3000
M  V30 BEGIN CTAB
M  V30 COUNTS 42 44 0 0 0
M  V30 BEGIN ATOM
M  V30 1 O 0.431661 -4.171257 2.993443 0
M  V30 2 C 0.930143 -3.021162 2.679377 0
M  V30 3 C 2.268197 -2.835222 3.161630 0
M  V30 4 C 3.223329 -1.930179 3.153059 0
M  V30 5 N 2.848810 -0.752862 2.456465 0
M  V30 6 C 3.850904 0.132580 2.476766 0
M  V30 7 N 3.530578 1.262483 1.824796 0
M  V30 8 C 2.280812 1.109295 1.364984 0
M  V30 9 C 1.333600 1.902998 0.600860 0
M  V30 10 C 1.325395 3.263900 0.840072 0
M  V30 11 C 0.467206 4.130907 0.174597 0
M  V30 12 C 0.447028 5.598510 0.421696 0
M  V30 13 F 0.867910 5.938766 1.685847 0
M  V30 14 F 1.285314 6.238597 -0.482140 0
M  V30 15 F -0.803895 6.130945 0.218436 0
M  V30 16 C -0.399314 3.584252 -0.755525 0
M  V30 17 C -0.371835 2.205863 -0.979435 0
M  V30 18 C -1.293413 1.566642 -1.979152 0
M  V30 19 F -2.179069 0.778099 -1.241538 0
M  V30 20 F -1.983129 2.563641 -2.636172 0
M  V30 21 F -0.609600 0.721597 -2.814892 0
M  V30 22 C 0.486012 1.347270 -0.312757 0
M  V30 23 N 1.962572 -0.095902 1.780654 0
M  V30 24 N -0.228593 -2.614826 2.002581 0
M  V30 25 N -1.261760 -3.585924 2.008232 0
M  V30 26 C -1.279983 -4.534570 0.921675 0
M  V30 27 C -2.246480 -5.529626 0.825913 0
M  V30 28 N -2.238255 -6.400084 -0.198586 0
M  V30 29 C -1.299344 -6.338004 -1.160792 0
M  V30 30 C -0.327018 -5.358549 -1.089655 0
M  V30 31 N -0.366282 -4.504954 -0.050626 0
M  V30 32 H 2.633775 -3.721270 3.721382 0
M  V30 33 H 4.153815 -2.157472 3.651326 0
M  V30 34 H 4.871431 0.212615 2.872824 0
M  V30 35 H 1.972432 3.751458 1.549016 0
M  V30 36 H -1.100801 4.205749 -1.315300 0
M  V30 37 H 0.503877 0.287494 -0.488032 0
M  V30 38 H -0.034605 -1.671808 1.654038 0
M  V30 39 H -2.027540 -3.694191 2.725773 0
M  V30 40 H -2.985441 -5.544975 1.622295 0
M  V30 41 H -1.238592 -7.003081 -2.003581 0
M  V30 42 H 0.465046 -5.260286 -1.847838 0
M  V30 END ATOM
M  V30 BEGIN BOND
M  V30 1 2 1 2
M  V30 2 1 2 3
M  V30 3 2 3 4
M  V30 4 1 4 5
M  V30 5 1 5 6
M  V30 6 2 6 7
M  V30 7 1 7 8
M  V30 8 1 8 9
M  V30 9 2 9 10
M  V30 10 1 10 11
M  V30 11 1 11 12
M  V30 12 1 12 13
M  V30 13 1 12 14
M  V30 14 1 12 15
M  V30 15 2 11 16
M  V30 16 1 16 17
M  V30 17 1 17 18
M  V30 18 1 18 19
M  V30 19 1 18 20
M  V30 20 1 18 21
M  V30 21 2 17 22
M  V30 22 2 8 23
M  V30 23 1 2 24
M  V30 24 1 24 25
M  V30 25 1 25 26
M  V30 26 2 26 27
M  V30 27 1 27 28
M  V30 28 2 28 29
M  V30 29 1 29 30
M  V30 30 2 30 31
M  V30 31 1 23 5
M  V30 32 1 31 26
M  V30 33 1 22 9
M  V30 34 1 3 32
M  V30 35 1 4 33
M  V30 36 1 6 34
M  V30 37 1 10 35
M  V30 38 1 16 36
M  V30 39 1 22 37
M  V30 40 1 24 38
M  V30 41 1 25 39
M  V30 42 1 27 40
M  V30 43 1 29 41
M  V30 44 1 30 42
M  V30 END BOND
M  V30 END CTAB
M  END
>  <Dataset>  (884) 
OralDrugs

>  <Ligand_Instance>  (884) 
nan

>  <PDB_ID>  (884) 
nan

>  <Standardized_SMILES>  (884) 
O=C(/C=C\n1cnc(-c2cc(C(F)(F)F)cc(C(F)(F)F)c2)n1)NNc1cnccn1

>  <Name>  (884) 
Selinexor

>  <Pocket>  (884) 
nan

>  <ATP_Site>  (884) 
nan

>  <Peripheral>  (884) 
nan

>  <Num_H_Atoms_ProtBoundConf>  (884) 
nan

>  <Num_Resolved_Atoms>  (884) 
nan

>  <Num_Not_Resolved_Atoms>  (884) 
nan

$$$$
CHEMBL4559134
     RDKit          3D

  0  0  0  0  0  0  0  0  0  0999 V3000
M  V30 BEGIN CTAB
M  V30 COUNTS 70 75 0 0 0
M  V30 BEGIN ATOM
M  V30 1 C 3.589960 9.443802 1.992641 0
M  V30 2 O 2.274847 9.437386 1.552883 0
M  V30 3 C 1.539338 8.253268 1.269933 0
M  V30 4 C 0.256207 8.094075 0.779273 0
M  V30 5 C -0.188038 6.804368 0.632407 0
M  V30 6 C 0.523848 5.633204 0.929310 0
M  V30 7 C -0.133878 4.376164 0.728786 0
M  V30 8 N 0.238353 3.456536 -0.271743 0
M  V30 9 C 1.300852 2.535870 0.026954 0
M  V30 10 C 0.256424 1.706913 0.745885 0
M  V30 11 C -0.657453 2.290983 -0.315999 0
M  V30 12 C -0.425435 1.509840 -1.629484 0
M  V30 13 N 0.790685 0.708208 -1.401069 0
M  V30 14 C 0.732357 -0.719284 -1.328087 0
M  V30 15 C -0.323259 -1.349035 -1.934430 0
M  V30 16 C -0.422900 -2.685376 -1.638923 0
M  V30 17 C 0.455240 -3.341867 -0.810911 0
M  V30 18 C 0.459257 -4.651777 -0.205255 0
M  V30 19 C -0.760737 -4.795974 0.469096 0
M  V30 20 C -1.132320 -5.852970 1.260114 0
M  V30 21 O -2.140755 -6.351993 2.013977 0
M  V30 22 C -3.422710 -5.896876 2.255345 0
M  V30 23 C -4.400420 -5.910566 1.135003 0
M  V30 24 C -4.766321 -7.370909 0.823102 0
M  V30 25 C -4.049784 -5.204601 -0.119367 0
M  V30 26 O -5.615684 -5.338500 1.617964 0
M  V30 27 C -0.130050 -6.860844 1.362579 0
M  V30 28 N 1.078593 -6.732618 0.698824 0
M  V30 29 N 2.170786 -7.507914 0.609016 0
M  V30 30 C 3.083587 -6.916068 -0.191637 0
M  V30 31 C 2.584746 -5.706222 -0.655773 0
M  V30 32 C 3.200586 -4.796095 -1.563975 0
M  V30 33 N 3.694857 -4.043813 -2.324669 0
M  V30 34 C 1.353095 -5.662131 -0.062666 0
M  V30 35 C 1.525497 -2.649847 -0.226384 0
M  V30 36 N 1.653123 -1.312332 -0.500477 0
M  V30 37 C 1.732209 1.804700 -1.253914 0
M  V30 38 C 1.800834 5.875159 1.413089 0
M  V30 39 N 2.230820 7.134347 1.553434 0
M  V30 40 H 3.648128 9.565386 3.114673 0
M  V30 41 H 4.174731 10.309905 1.614852 0
M  V30 42 H 4.146181 8.517113 1.687945 0
M  V30 43 H -0.253726 9.021179 0.569761 0
M  V30 44 H -1.215170 6.766320 0.239070 0
M  V30 45 H -1.267473 4.547249 0.654791 0
M  V30 46 H -0.087498 3.828678 1.736352 0
M  V30 47 H 2.154295 2.842079 0.589306 0
M  V30 48 H 0.267143 0.628592 0.633147 0
M  V30 49 H 0.084759 1.948301 1.783444 0
M  V30 50 H -1.690847 2.446017 -0.037190 0
M  V30 51 H -0.368550 2.222547 -2.431151 0
M  V30 52 H -1.297357 0.836198 -1.705447 0
M  V30 53 H -1.052038 -0.922024 -2.598136 0
M  V30 54 H -1.172686 -3.377210 -2.002724 0
M  V30 55 H -1.592371 -4.115552 0.515079 0
M  V30 56 H -3.893748 -6.529945 3.073504 0
M  V30 57 H -3.421045 -4.829863 2.674054 0
M  V30 58 H -4.409769 -7.582892 -0.209793 0
M  V30 59 H -4.331207 -7.997563 1.586966 0
M  V30 60 H -5.875629 -7.476196 0.780324 0
M  V30 61 H -3.206311 -5.659939 -0.674117 0
M  V30 62 H -3.948806 -4.128615 0.070361 0
M  V30 63 H -4.911003 -5.264907 -0.865717 0
M  V30 64 H -5.380541 -4.405624 1.944674 0
M  V30 65 H -0.121791 -7.799994 1.920075 0
M  V30 66 H 4.045569 -7.341759 -0.412152 0
M  V30 67 H 2.319571 -2.962778 0.443455 0
M  V30 68 H 1.805500 2.454707 -2.124856 0
M  V30 69 H 2.764094 1.398075 -1.063660 0
M  V30 70 H 2.413008 5.020978 1.676765 0
M  V30 END ATOM
M  V30 BEGIN BOND
M  V30 1 1 1 2
M  V30 2 1 2 3
M  V30 3 2 3 4
M  V30 4 1 4 5
M  V30 5 2 5 6
M  V30 6 1 6 7
M  V30 7 1 7 8
M  V30 8 1 8 9
M  V30 9 1 9 10
M  V30 10 1 10 11
M  V30 11 1 11 12
M  V30 12 1 12 13
M  V30 13 1 13 14
M  V30 14 2 14 15
M  V30 15 1 15 16
M  V30 16 2 16 17
M  V30 17 1 17 18
M  V30 18 2 18 19
M  V30 19 1 19 20
M  V30 20 1 20 21
M  V30 21 1 21 22
M  V30 22 1 22 23
M  V30 23 1 23 24
M  V30 24 1 23 25
M  V30 25 1 23 26
M  V30 26 2 20 27
M  V30 27 1 27 28
M  V30 28 1 28 29
M  V30 29 2 29 30
M  V30 30 1 30 31
M  V30 31 1 31 32
M  V30 32 3 32 33
M  V30 33 2 31 34
M  V30 34 1 17 35
M  V30 35 2 35 36
M  V30 36 1 13 37
M  V30 37 1 6 38
M  V30 38 2 38 39
M  V30 39 1 39 3
M  V30 40 1 11 8
M  V30 41 1 36 14
M  V30 42 1 37 9
M  V30 43 1 34 18
M  V30 44 1 34 28
M  V30 45 1 1 40
M  V30 46 1 1 41
M  V30 47 1 1 42
M  V30 48 1 4 43
M  V30 49 1 5 44
M  V30 50 1 7 45
M  V30 51 1 7 46
M  V30 52 1 9 47
M  V30 53 1 10 48
M  V30 54 1 10 49
M  V30 55 1 11 50
M  V30 56 1 12 51
M  V30 57 1 12 52
M  V30 58 1 15 53
M  V30 59 1 16 54
M  V30 60 1 19 55
M  V30 61 1 22 56
M  V30 62 1 22 57
M  V30 63 1 24 58
M  V30 64 1 24 59
M  V30 65 1 24 60
M  V30 66 1 25 61
M  V30 67 1 25 62
M  V30 68 1 25 63
M  V30 69 1 26 64
M  V30 70 1 27 65
M  V30 71 1 30 66
M  V30 72 1 35 67
M  V30 73 1 37 68
M  V30 74 1 37 69
M  V30 75 1 38 70
M  V30 END BOND
M  V30 END CTAB
M  END
>  <Dataset>  (885) 
OralDrugs

>  <Ligand_Instance>  (885) 
nan

>  <PDB_ID>  (885) 
nan

>  <Standardized_SMILES>  (885) 
COc1ccc(CN2C3CC2CN(c2ccc(-c4cc(OCC(C)(C)O)cn5ncc(C#N)c45)cn2)C3)cn1

>  <Name>  (885) 
Selpercatinib

>  <Pocket>  (885) 
nan

>  <ATP_Site>  (885) 
nan

>  <Peripheral>  (885) 
nan

>  <Num_H_Atoms_ProtBoundConf>  (885) 
nan

>  <Num_Resolved_Atoms>  (885) 
nan

>  <Num_Not_Resolved_Atoms>  (885) 
nan

$$$$
CHEMBL1614701
     RDKit          3D

  0  0  0  0  0  0  0  0  0  0999 V3000
M  V30 BEGIN CTAB
M  V30 COUNTS 42 44 0 0 0
M  V30 BEGIN ATOM
M  V30 1 C 3.023546 -5.148626 -0.299439 0
M  V30 2 N 2.715538 -4.030013 -1.198998 0
M  V30 3 C 3.223327 -3.907943 -2.435912 0
M  V30 4 N 2.731861 -2.779840 -2.962485 0
M  V30 5 C 1.915760 -2.161172 -2.101616 0
M  V30 6 C 1.132066 -1.002213 -2.054719 0
M  V30 7 F 1.233650 -0.337445 -3.242472 0
M  V30 8 C 0.379410 -0.678168 -0.916639 0
M  V30 9 N -0.307279 0.532715 -1.087158 0
M  V30 10 C -0.328255 1.904409 -0.752690 0
M  V30 11 C -1.483743 2.376898 -0.133618 0
M  V30 12 C -1.682244 3.674052 0.276914 0
M  V30 13 C -0.618662 4.511586 0.025279 0
M  V30 14 Br -0.812291 6.333840 0.567113 0
M  V30 15 C 0.569374 4.161476 -0.577348 0
M  V30 16 C 0.663207 2.839078 -0.948549 0
M  V30 17 Cl 2.153041 2.339380 -1.701753 0
M  V30 18 C 0.435070 -1.538792 0.154240 0
M  V30 19 C -0.367560 -1.161917 1.301049 0
M  V30 20 O -1.145499 -0.239542 1.626839 0
M  V30 21 N -0.367531 -1.983626 2.460495 0
M  V30 22 O -1.097624 -1.683474 3.564109 0
M  V30 23 C -0.279178 -0.902426 4.378598 0
M  V30 24 C -0.988350 -0.492070 5.653800 0
M  V30 25 O -2.131679 0.249383 5.392771 0
M  V30 26 C 1.172846 -2.678415 0.176668 0
M  V30 27 C 1.898314 -2.960141 -0.959928 0
M  V30 28 H 3.984311 -4.977223 0.236844 0
M  V30 29 H 2.247582 -5.223823 0.503557 0
M  V30 30 H 3.055913 -6.100888 -0.843311 0
M  V30 31 H 3.904731 -4.584043 -2.933990 0
M  V30 32 H -1.132781 0.304494 -1.719986 0
M  V30 33 H -2.317830 1.685668 0.054621 0
M  V30 34 H -2.593745 4.002267 0.754168 0
M  V30 35 H 1.373390 4.849154 -0.754148 0
M  V30 36 H 0.177285 -2.889056 2.598814 0
M  V30 37 H 0.033076 0.045126 3.895941 0
M  V30 38 H 0.653465 -1.441119 4.642023 0
M  V30 39 H -0.290598 0.138210 6.236812 0
M  V30 40 H -1.194958 -1.393409 6.258269 0
M  V30 41 H -2.905185 -0.086509 5.908748 0
M  V30 42 H 1.233121 -3.358388 0.988798 0
M  V30 END ATOM
M  V30 BEGIN BOND
M  V30 1 1 1 2
M  V30 2 1 2 3
M  V30 3 2 3 4
M  V30 4 1 4 5
M  V30 5 2 5 6
M  V30 6 1 6 7
M  V30 7 1 6 8
M  V30 8 1 8 9
M  V30 9 1 9 10
M  V30 10 2 10 11
M  V30 11 1 11 12
M  V30 12 2 12 13
M  V30 13 1 13 14
M  V30 14 1 13 15
M  V30 15 2 15 16
M  V30 16 1 16 17
M  V30 17 2 8 18
M  V30 18 1 18 19
M  V30 19 2 19 20
M  V30 20 1 19 21
M  V30 21 1 21 22
M  V30 22 1 22 23
M  V30 23 1 23 24
M  V30 24 1 24 25
M  V30 25 1 18 26
M  V30 26 2 26 27
M  V30 27 1 27 2
M  V30 28 1 27 5
M  V30 29 1 16 10
M  V30 30 1 1 28
M  V30 31 1 1 29
M  V30 32 1 1 30
M  V30 33 1 3 31
M  V30 34 1 9 32
M  V30 35 1 11 33
M  V30 36 1 12 34
M  V30 37 1 15 35
M  V30 38 1 21 36
M  V30 39 1 23 37
M  V30 40 1 23 38
M  V30 41 1 24 39
M  V30 42 1 24 40
M  V30 43 1 25 41
M  V30 44 1 26 42
M  V30 END BOND
M  V30 END CTAB
M  END
>  <Dataset>  (886) 
OralDrugs

>  <Ligand_Instance>  (886) 
nan

>  <PDB_ID>  (886) 
nan

>  <Standardized_SMILES>  (886) 
Cn1cnc2c(F)c(Nc3ccc(Br)cc3Cl)c(C(=O)NOCCO)cc21

>  <Name>  (886) 
Selumetinib

>  <Pocket>  (886) 
nan

>  <ATP_Site>  (886) 
nan

>  <Peripheral>  (886) 
nan

>  <Num_H_Atoms_ProtBoundConf>  (886) 
nan

>  <Num_Resolved_Atoms>  (886) 
nan

>  <Num_Not_Resolved_Atoms>  (886) 
nan

$$$$
CHEMBL70972
     RDKit          3D

  0  0  0  0  0  0  0  0  0  0999 V3000
M  V30 BEGIN CTAB
M  V30 COUNTS 52 53 0 0 0
M  V30 BEGIN ATOM
M  V30 1 C 1.134046 -5.711975 1.545096 0
M  V30 2 C 0.626906 -4.348185 1.295583 0
M  V30 3 C 0.470379 -3.489942 2.282050 0
M  V30 4 C 0.802891 -3.879772 3.671985 0
M  V30 5 C -0.033228 -2.173679 1.935762 0
M  V30 6 O -0.158389 -1.395806 2.945732 0
M  V30 7 C -0.398222 -1.672904 0.582572 0
M  V30 8 C -0.906961 -0.319436 0.508931 0
M  V30 9 C -0.587049 0.552063 -0.629526 0
M  V30 10 C 0.901440 0.778885 -0.755915 0
M  V30 11 C 1.551490 1.447655 0.409990 0
M  V30 12 C 3.054261 1.658803 0.159637 0
M  V30 13 C 3.281504 2.526156 -1.058993 0
M  V30 14 C 2.661337 3.858656 -0.906048 0
M  V30 15 O 1.997427 4.412150 0.007247 0
M  V30 16 O 2.839094 4.709959 -2.008757 0
M  V30 17 C -2.280086 -0.144201 1.104956 0
M  V30 18 C -3.361922 -0.636392 0.362862 0
M  V30 19 C -4.666778 -0.538462 0.799320 0
M  V30 20 C -4.953594 0.060318 2.006644 0
M  V30 21 C -3.910578 0.554394 2.759705 0
M  V30 22 C -2.625244 0.435380 2.286380 0
M  V30 23 C -0.221989 -2.577861 -0.371337 0
M  V30 24 C -0.535419 -2.250825 -1.739913 0
M  V30 25 C 0.292036 -3.934174 -0.052570 0
M  V30 26 O 0.452331 -4.779050 -0.978379 0
M  V30 27 H 0.761908 -6.120013 2.524323 0
M  V30 28 H 2.231539 -5.787216 1.505784 0
M  V30 29 H 0.668230 -6.372966 0.776731 0
M  V30 30 H -0.064118 -4.316562 4.212010 0
M  V30 31 H 1.674018 -4.567122 3.718433 0
M  V30 32 H 1.110495 -2.976137 4.268263 0
M  V30 33 H -0.307261 0.225966 1.369542 0
M  V30 34 H -0.984044 1.584638 -0.339154 0
M  V30 35 H -0.935928 0.290601 -1.624807 0
M  V30 36 H 1.454573 -0.172787 -1.013198 0
M  V30 37 H 1.050192 1.397343 -1.692669 0
M  V30 38 H 1.541969 0.744659 1.281777 0
M  V30 39 H 1.073847 2.378839 0.694714 0
M  V30 40 H 3.553276 0.688955 0.068528 0
M  V30 41 H 3.446149 2.195923 1.030022 0
M  V30 42 H 2.934515 2.086965 -2.001470 0
M  V30 43 H 4.381036 2.705755 -1.166481 0
M  V30 44 H 2.744142 5.706626 -1.960764 0
M  V30 45 H -3.305664 -1.124453 -0.588485 0
M  V30 46 H -5.530311 -0.898115 0.270940 0
M  V30 47 H -5.920622 0.202267 2.463744 0
M  V30 48 H -4.018191 1.049276 3.732915 0
M  V30 49 H -1.784484 0.812094 2.852473 0
M  V30 50 H -1.541916 -1.876948 -1.979004 0
M  V30 51 H 0.220696 -1.655755 -2.265318 0
M  V30 52 H -0.515389 -3.240130 -2.318176 0
M  V30 END ATOM
M  V30 BEGIN BOND
M  V30 1 1 1 2
M  V30 2 2 2 3
M  V30 3 1 3 4
M  V30 4 1 3 5
M  V30 5 2 5 6
M  V30 6 1 5 7
M  V30 7 1 7 8
M  V30 8 1 8 9
M  V30 9 1 9 10
M  V30 10 1 10 11
M  V30 11 1 11 12
M  V30 12 1 12 13
M  V30 13 1 13 14
M  V30 14 2 14 15
M  V30 15 1 14 16
M  V30 16 1 8 17
M  V30 17 2 17 18
M  V30 18 1 18 19
M  V30 19 2 19 20
M  V30 20 1 20 21
M  V30 21 2 21 22
M  V30 22 2 7 23
M  V30 23 1 23 24
M  V30 24 1 23 25
M  V30 25 2 25 26
M  V30 26 1 25 2
M  V30 27 1 22 17
M  V30 28 1 1 27
M  V30 29 1 1 28
M  V30 30 1 1 29
M  V30 31 1 4 30
M  V30 32 1 4 31
M  V30 33 1 4 32
M  V30 34 1 8 33
M  V30 35 1 9 34
M  V30 36 1 9 35
M  V30 37 1 10 36
M  V30 38 1 10 37
M  V30 39 1 11 38
M  V30 40 1 11 39
M  V30 41 1 12 40
M  V30 42 1 12 41
M  V30 43 1 13 42
M  V30 44 1 13 43
M  V30 45 1 16 44
M  V30 46 1 18 45
M  V30 47 1 19 46
M  V30 48 1 20 47
M  V30 49 1 21 48
M  V30 50 1 22 49
M  V30 51 1 24 50
M  V30 52 1 24 51
M  V30 53 1 24 52
M  V30 END BOND
M  V30 END CTAB
M  END
>  <Dataset>  (887) 
OralDrugs

>  <Ligand_Instance>  (887) 
nan

>  <PDB_ID>  (887) 
nan

>  <Standardized_SMILES>  (887) 
CC1=C(C)C(=O)C(C(CCCCCC(=O)O)c2ccccc2)=C(C)C1=O

>  <Name>  (887) 
Seratrodast

>  <Pocket>  (887) 
nan

>  <ATP_Site>  (887) 
nan

>  <Peripheral>  (887) 
nan

>  <Num_H_Atoms_ProtBoundConf>  (887) 
nan

>  <Num_Resolved_Atoms>  (887) 
nan

>  <Num_Not_Resolved_Atoms>  (887) 
nan

$$$$
CHEMBL809
     RDKit          3D

  0  0  0  0  0  0  0  0  0  0999 V3000
M  V30 BEGIN CTAB
M  V30 COUNTS 37 39 0 0 0
M  V30 BEGIN ATOM
M  V30 1 C -0.686937 -2.497085 4.550450 0
M  V30 2 N -0.137526 -2.923006 3.292542 0
M  V30 3 C -0.232185 -1.873780 2.308359 0 CFG=1
M  V30 4 C 0.530829 -0.648043 2.771049 0
M  V30 5 C 0.352519 0.495467 1.822469 0
M  V30 6 C -0.196577 0.044800 0.507899 0 CFG=1
M  V30 7 C -0.104748 1.023396 -0.564435 0
M  V30 8 C -1.118934 1.124267 -1.518666 0
M  V30 9 C -1.100904 2.033244 -2.570164 0
M  V30 10 C -0.019580 2.887844 -2.681497 0
M  V30 11 Cl -0.034024 4.018016 -4.019259 0
M  V30 12 C 1.007713 2.825909 -1.762140 0
M  V30 13 Cl 2.363329 3.918792 -1.926911 0
M  V30 14 C 0.928500 1.897799 -0.738624 0
M  V30 15 C 0.426708 -1.267051 0.119828 0
M  V30 16 C 0.996126 -1.443730 -1.146198 0
M  V30 17 C 1.564070 -2.676982 -1.466047 0
M  V30 18 C 1.545215 -3.689309 -0.515889 0
M  V30 19 C 0.982814 -3.498573 0.720053 0
M  V30 20 C 0.424634 -2.295052 1.042017 0
M  V30 21 H -0.030208 -1.856605 5.144283 0
M  V30 22 H -1.011551 -3.401815 5.136155 0
M  V30 23 H -1.652224 -1.966693 4.309947 0
M  V30 24 H 0.785677 -3.361926 3.356458 0
M  V30 25 H -1.276641 -1.579214 2.188798 0
M  V30 26 H 1.611163 -0.977764 2.755523 0
M  V30 27 H 0.301573 -0.351807 3.807451 0
M  V30 28 H -0.385248 1.208253 2.294975 0
M  V30 29 H 1.305700 1.037677 1.781720 0
M  V30 30 H -1.288267 -0.161100 0.683971 0
M  V30 31 H -1.968973 0.454699 -1.433768 0
M  V30 32 H -1.937882 2.039312 -3.267113 0
M  V30 33 H 1.748216 1.879167 -0.041137 0
M  V30 34 H 0.993825 -0.619404 -1.875784 0
M  V30 35 H 2.014618 -2.855245 -2.433479 0
M  V30 36 H 1.970246 -4.667373 -0.706085 0
M  V30 37 H 0.926580 -4.233508 1.516217 0
M  V30 END ATOM
M  V30 BEGIN BOND
M  V30 1 1 1 2
M  V30 2 1 2 3
M  V30 3 1 3 4
M  V30 4 1 4 5
M  V30 5 1 5 6
M  V30 6 1 6 7
M  V30 7 2 7 8
M  V30 8 1 8 9
M  V30 9 2 9 10
M  V30 10 1 10 11
M  V30 11 1 10 12
M  V30 12 1 12 13
M  V30 13 2 12 14
M  V30 14 1 6 15
M  V30 15 2 15 16
M  V30 16 1 16 17
M  V30 17 2 17 18
M  V30 18 1 18 19
M  V30 19 2 19 20
M  V30 20 1 20 3
M  V30 21 1 14 7
M  V30 22 1 20 15
M  V30 23 1 1 21
M  V30 24 1 1 22
M  V30 25 1 1 23
M  V30 26 1 2 24
M  V30 27 1 3 25 CFG=3
M  V30 28 1 4 26
M  V30 29 1 4 27
M  V30 30 1 5 28
M  V30 31 1 5 29
M  V30 32 1 6 30 CFG=1
M  V30 33 1 8 31
M  V30 34 1 9 32
M  V30 35 1 14 33
M  V30 36 1 16 34
M  V30 37 1 17 35
M  V30 38 1 18 36
M  V30 39 1 19 37
M  V30 END BOND
M  V30 END CTAB
M  END
>  <Dataset>  (888) 
OralDrugs

>  <Ligand_Instance>  (888) 
nan

>  <PDB_ID>  (888) 
nan

>  <Standardized_SMILES>  (888) 
CN[C@H]1CC[C@@H](c2ccc(Cl)c(Cl)c2)c2ccccc21

>  <Name>  (888) 
Sertraline

>  <Pocket>  (888) 
nan

>  <ATP_Site>  (888) 
nan

>  <Peripheral>  (888) 
nan

>  <Num_H_Atoms_ProtBoundConf>  (888) 
nan

>  <Num_Resolved_Atoms>  (888) 
nan

>  <Num_Not_Resolved_Atoms>  (888) 
nan

$$$$
CHEMBL192
     RDKit          3D

  0  0  0  0  0  0  0  0  0  0999 V3000
M  V30 BEGIN CTAB
M  V30 COUNTS 63 66 0 0 0
M  V30 BEGIN ATOM
M  V30 1 C 4.049948 3.535732 2.259564 0
M  V30 2 C 3.400226 2.236137 2.717321 0
M  V30 3 C 4.056860 1.050374 2.039831 0
M  V30 4 C 3.917695 1.144142 0.552530 0
M  V30 5 N 4.758255 1.489193 -0.438710 0
M  V30 6 N 4.134252 1.411735 -1.608173 0
M  V30 7 C 4.712251 1.706571 -2.906992 0
M  V30 8 C 2.867646 1.015093 -1.423955 0
M  V30 9 C 1.769426 0.760441 -2.227005 0
M  V30 10 O 1.871653 0.907366 -3.468331 0
M  V30 11 N 0.592032 0.356264 -1.686560 0
M  V30 12 C 0.432361 0.184479 -0.366733 0
M  V30 13 C -0.808795 -0.242679 0.261933 0
M  V30 14 C -1.959313 -0.495614 -0.451544 0
M  V30 15 C -3.156161 -0.903213 0.097703 0
M  V30 16 S -4.600261 -1.208286 -0.795714 0
M  V30 17 O -4.618899 -0.272764 -1.990695 0
M  V30 18 O -5.839322 -0.912625 0.014193 0
M  V30 19 N -4.740682 -2.786174 -1.392572 0
M  V30 20 C -3.725108 -3.154381 -2.300411 0
M  V30 21 C -2.541575 -3.869848 -1.773967 0
M  V30 22 N -2.735067 -4.729784 -0.660461 0
M  V30 23 C -1.524641 -4.724927 0.142706 0
M  V30 24 C -3.849709 -4.465825 0.180312 0
M  V30 25 C -5.021335 -3.813362 -0.460899 0
M  V30 26 C -3.204926 -1.072511 1.486221 0
M  V30 27 C -2.047554 -0.816668 2.184600 0
M  V30 28 C -0.845448 -0.409512 1.653403 0
M  V30 29 O 0.318435 -0.152147 2.343903 0
M  V30 30 C 0.385257 -0.277045 3.742951 0
M  V30 31 C -0.545094 0.648845 4.461658 0
M  V30 32 N 1.512288 0.438178 0.386948 0
M  V30 33 C 2.700513 0.838008 -0.068706 0
M  V30 34 H 3.991966 4.252513 3.092602 0
M  V30 35 H 5.125552 3.297588 2.105680 0
M  V30 36 H 3.571611 3.880491 1.320681 0
M  V30 37 H 3.582741 2.131110 3.805793 0
M  V30 38 H 2.313147 2.250269 2.545469 0
M  V30 39 H 3.618670 0.132638 2.460621 0
M  V30 40 H 5.115607 1.055309 2.360488 0
M  V30 41 H 4.281602 2.666501 -3.257991 0
M  V30 42 H 4.471683 0.904750 -3.650133 0
M  V30 43 H 5.823695 1.839251 -2.806665 0
M  V30 44 H -0.198522 0.180223 -2.327303 0
M  V30 45 H -1.977730 -0.379498 -1.537985 0
M  V30 46 H -4.187871 -3.714773 -3.147561 0
M  V30 47 H -3.336805 -2.198602 -2.770248 0
M  V30 48 H -1.665356 -3.173552 -1.623345 0
M  V30 49 H -2.169344 -4.535811 -2.611652 0
M  V30 50 H -1.720061 -5.149877 1.162888 0
M  V30 51 H -0.739997 -5.406432 -0.287831 0
M  V30 52 H -1.101713 -3.715094 0.276428 0
M  V30 53 H -4.214685 -5.471463 0.547429 0
M  V30 54 H -3.593704 -3.938091 1.143526 0
M  V30 55 H -5.595464 -4.604228 -0.997369 0
M  V30 56 H -5.677349 -3.448645 0.377263 0
M  V30 57 H -4.108924 -1.388220 1.965706 0
M  V30 58 H -2.110300 -0.963845 3.259858 0
M  V30 59 H 1.429595 -0.171036 4.118966 0
M  V30 60 H 0.093141 -1.333720 3.972584 0
M  V30 61 H -1.238528 1.183368 3.758003 0
M  V30 62 H -0.002275 1.402452 5.081709 0
M  V30 63 H -1.151050 0.068659 5.178333 0
M  V30 END ATOM
M  V30 BEGIN BOND
M  V30 1 1 1 2
M  V30 2 1 2 3
M  V30 3 1 3 4
M  V30 4 2 4 5
M  V30 5 1 5 6
M  V30 6 1 6 7
M  V30 7 1 6 8
M  V30 8 1 8 9
M  V30 9 2 9 10
M  V30 10 1 9 11
M  V30 11 1 11 12
M  V30 12 1 12 13
M  V30 13 2 13 14
M  V30 14 1 14 15
M  V30 15 1 15 16
M  V30 16 2 16 17
M  V30 17 2 16 18
M  V30 18 1 16 19
M  V30 19 1 19 20
M  V30 20 1 20 21
M  V30 21 1 21 22
M  V30 22 1 22 23
M  V30 23 1 22 24
M  V30 24 1 24 25
M  V30 25 2 15 26
M  V30 26 1 26 27
M  V30 27 2 27 28
M  V30 28 1 28 29
M  V30 29 1 29 30
M  V30 30 1 30 31
M  V30 31 2 12 32
M  V30 32 1 32 33
M  V30 33 1 33 4
M  V30 34 2 33 8
M  V30 35 1 28 13
M  V30 36 1 25 19
M  V30 37 1 1 34
M  V30 38 1 1 35
M  V30 39 1 1 36
M  V30 40 1 2 37
M  V30 41 1 2 38
M  V30 42 1 3 39
M  V30 43 1 3 40
M  V30 44 1 7 41
M  V30 45 1 7 42
M  V30 46 1 7 43
M  V30 47 1 11 44
M  V30 48 1 14 45
M  V30 49 1 20 46
M  V30 50 1 20 47
M  V30 51 1 21 48
M  V30 52 1 21 49
M  V30 53 1 23 50
M  V30 54 1 23 51
M  V30 55 1 23 52
M  V30 56 1 24 53
M  V30 57 1 24 54
M  V30 58 1 25 55
M  V30 59 1 25 56
M  V30 60 1 26 57
M  V30 61 1 27 58
M  V30 62 1 30 59
M  V30 63 1 30 60
M  V30 64 1 31 61
M  V30 65 1 31 62
M  V30 66 1 31 63
M  V30 END BOND
M  V30 END CTAB
M  END
>  <Dataset>  (889) 
OralDrugs

>  <Ligand_Instance>  (889) 
nan

>  <PDB_ID>  (889) 
nan

>  <Standardized_SMILES>  (889) 
CCCc1nn(C)c2c(=O)[nH]c(-c3cc(S(=O)(=O)N4CCN(C)CC4)ccc3OCC)nc12

>  <Name>  (889) 
Sildenafil

>  <Pocket>  (889) 
nan

>  <ATP_Site>  (889) 
nan

>  <Peripheral>  (889) 
nan

>  <Num_H_Atoms_ProtBoundConf>  (889) 
nan

>  <Num_Resolved_Atoms>  (889) 
nan

>  <Num_Not_Resolved_Atoms>  (889) 
nan

$$$$
CHEMBL24778
     RDKit          3D

  0  0  0  0  0  0  0  0  0  0999 V3000
M  V30 BEGIN CTAB
M  V30 COUNTS 67 69 0 0 0
M  V30 BEGIN ATOM
M  V30 1 C 1.337115 -1.743427 4.703308 0
M  V30 2 C 1.095698 -2.048240 3.244560 0 CFG=2
M  V30 3 C 2.384351 -2.275291 2.503414 0
M  V30 4 C 2.079685 -2.570500 1.072272 0
M  V30 5 C 1.867755 -3.869209 0.679669 0
M  V30 6 C 1.580180 -4.288263 -0.598274 0
M  V30 7 C 1.509977 -3.251675 -1.536206 0
M  V30 8 C 1.720388 -1.940706 -1.175175 0
M  V30 9 C 1.744611 -0.832858 -2.110505 0
M  V30 10 N 1.742602 -0.349181 -3.434423 0
M  V30 11 O 1.796575 0.382290 -1.706271 0
M  V30 12 C 2.005301 -1.580059 0.125306 0
M  V30 13 N 1.156263 -3.835457 -2.793055 0
M  V30 14 C 0.306309 -3.197278 -3.792336 0
M  V30 15 C -0.999707 -4.032471 -3.904100 0
M  V30 16 C -1.940143 -3.452898 -4.916350 0
M  V30 17 O -3.096555 -4.257708 -4.961171 0
M  V30 18 C 1.848996 -5.132793 -2.739240 0
M  V30 19 C 1.330998 -5.572438 -1.347319 0
M  V30 20 N 0.270320 -1.021751 2.642310 0
M  V30 21 C -1.003184 -1.029458 3.370793 0
M  V30 22 C -1.971034 -0.002127 2.844179 0
M  V30 23 O -1.515068 1.312122 2.919342 0
M  V30 24 C -2.244819 2.412278 2.489913 0
M  V30 25 C -3.488880 2.140495 1.963792 0
M  V30 26 C -4.284677 3.180029 1.510755 0
M  V30 27 C -3.786825 4.447881 1.610176 0
M  V30 28 C -2.540084 4.716548 2.137761 0
M  V30 29 C -1.722818 3.682090 2.599829 0
M  V30 30 O -0.465709 3.933177 3.134116 0
M  V30 31 C -0.022303 5.275889 3.202054 0
M  V30 32 C 1.344066 5.439041 3.792999 0
M  V30 33 F 1.610666 6.815571 3.778671 0
M  V30 34 F 1.467622 4.919396 5.049055 0
M  V30 35 F 2.322186 4.868073 2.983681 0
M  V30 36 H 1.435480 -0.653116 4.917556 0
M  V30 37 H 2.310751 -2.183017 5.032888 0
M  V30 38 H 0.550891 -2.213920 5.356125 0
M  V30 39 H 0.487463 -2.979486 3.214248 0
M  V30 40 H 2.962921 -3.092343 2.929584 0
M  V30 41 H 2.926497 -1.296405 2.508903 0
M  V30 42 H 1.927162 -4.648619 1.422044 0
M  V30 43 H 0.886298 -0.099451 -4.015005 0
M  V30 44 H 2.604123 -0.175199 -4.035859 0
M  V30 45 H 2.180257 -0.577095 0.487597 0
M  V30 46 H -0.059340 -2.229308 -3.465225 0
M  V30 47 H 0.795690 -3.123377 -4.770121 0
M  V30 48 H -1.495133 -3.999629 -2.916110 0
M  V30 49 H -0.760144 -5.066475 -4.146612 0
M  V30 50 H -2.206366 -2.404047 -4.720300 0
M  V30 51 H -1.473264 -3.577191 -5.934699 0
M  V30 52 H -3.865107 -3.740907 -4.624331 0
M  V30 53 H 1.439442 -5.739366 -3.540893 0
M  V30 54 H 2.928340 -5.046221 -2.657835 0
M  V30 55 H 0.263873 -5.829747 -1.379045 0
M  V30 56 H 2.006015 -6.369290 -0.998646 0
M  V30 57 H 0.684460 -0.077880 2.825641 0
M  V30 58 H -1.469602 -2.032157 3.290255 0
M  V30 59 H -0.850715 -0.855258 4.446061 0
M  V30 60 H -2.905349 -0.118038 3.435284 0
M  V30 61 H -2.205241 -0.203257 1.759116 0
M  V30 62 H -3.886627 1.141047 1.883229 0
M  V30 63 H -5.258728 2.961898 1.099241 0
M  V30 64 H -4.451092 5.234912 1.239937 0
M  V30 65 H -2.192753 5.745720 2.193196 0
M  V30 66 H 0.003964 5.634305 2.154153 0
M  V30 67 H -0.743260 5.871610 3.770865 0
M  V30 END ATOM
M  V30 BEGIN BOND
M  V30 1 1 1 2
M  V30 2 1 2 3
M  V30 3 1 3 4
M  V30 4 2 4 5
M  V30 5 1 5 6
M  V30 6 2 6 7
M  V30 7 1 7 8
M  V30 8 1 8 9
M  V30 9 1 9 10
M  V30 10 2 9 11
M  V30 11 2 8 12
M  V30 12 1 7 13
M  V30 13 1 13 14
M  V30 14 1 14 15
M  V30 15 1 15 16
M  V30 16 1 16 17
M  V30 17 1 13 18
M  V30 18 1 18 19
M  V30 19 1 2 20
M  V30 20 1 20 21
M  V30 21 1 21 22
M  V30 22 1 22 23
M  V30 23 1 23 24
M  V30 24 2 24 25
M  V30 25 1 25 26
M  V30 26 2 26 27
M  V30 27 1 27 28
M  V30 28 2 28 29
M  V30 29 1 29 30
M  V30 30 1 30 31
M  V30 31 1 31 32
M  V30 32 1 32 33
M  V30 33 1 32 34
M  V30 34 1 32 35
M  V30 35 1 12 4
M  V30 36 1 29 24
M  V30 37 1 19 6
M  V30 38 1 1 36
M  V30 39 1 1 37
M  V30 40 1 1 38
M  V30 41 1 2 39 CFG=1
M  V30 42 1 3 40
M  V30 43 1 3 41
M  V30 44 1 5 42
M  V30 45 1 10 43
M  V30 46 1 10 44
M  V30 47 1 12 45
M  V30 48 1 14 46
M  V30 49 1 14 47
M  V30 50 1 15 48
M  V30 51 1 15 49
M  V30 52 1 16 50
M  V30 53 1 16 51
M  V30 54 1 17 52
M  V30 55 1 18 53
M  V30 56 1 18 54
M  V30 57 1 19 55
M  V30 58 1 19 56
M  V30 59 1 20 57
M  V30 60 1 21 58
M  V30 61 1 21 59
M  V30 62 1 22 60
M  V30 63 1 22 61
M  V30 64 1 25 62
M  V30 65 1 26 63
M  V30 66 1 27 64
M  V30 67 1 28 65
M  V30 68 1 31 66
M  V30 69 1 31 67
M  V30 END BOND
M  V30 END CTAB
M  END
>  <Dataset>  (890) 
OralDrugs

>  <Ligand_Instance>  (890) 
nan

>  <PDB_ID>  (890) 
nan

>  <Standardized_SMILES>  (890) 
C[C@H](Cc1cc2c(c(C(N)=O)c1)N(CCCO)CC2)NCCOc1ccccc1OCC(F)(F)F

>  <Name>  (890) 
Silodosin

>  <Pocket>  (890) 
nan

>  <ATP_Site>  (890) 
nan

>  <Peripheral>  (890) 
nan

>  <Num_H_Atoms_ProtBoundConf>  (890) 
nan

>  <Num_Resolved_Atoms>  (890) 
nan

>  <Num_Not_Resolved_Atoms>  (890) 
nan

$$$$
CHEMBL501849
     RDKit          3D

  0  0  0  0  0  0  0  0  0  0999 V3000
M  V30 BEGIN CTAB
M  V30 COUNTS 99 105 0 0 0
M  V30 BEGIN ATOM
M  V30 1 C -6.342730 -3.518805 4.930442 0
M  V30 2 O -5.283427 -2.988148 5.702470 0
M  V30 3 C -4.187528 -2.407704 5.086246 0
M  V30 4 C -3.988056 -2.273720 3.714380 0
M  V30 5 C -2.844738 -1.671926 3.253445 0
M  V30 6 C -1.857500 -1.180020 4.072735 0
M  V30 7 C -0.819570 -0.625529 3.387462 0
M  V30 8 O -0.460994 -0.412342 2.179687 0
M  V30 9 C -0.604526 -0.470434 0.885609 0 CFG=2
M  V30 10 C 0.625625 -1.003390 0.130373 0
M  V30 11 C 0.800307 -0.168110 -1.098478 0 CFG=1
M  V30 12 C 0.740825 -1.004921 -2.321730 0
M  V30 13 O 0.315090 -2.032772 -2.847509 0
M  V30 14 N 1.300988 -0.860840 -3.646372 0
M  V30 15 C 1.170251 -1.732076 -4.793676 0 CFG=2
M  V30 16 C -0.220684 -2.003963 -5.280630 0
M  V30 17 O -1.297190 -1.499489 -4.800439 0
M  V30 18 N -0.589444 -2.859286 -6.348274 0
M  V30 19 S -2.270220 -3.017989 -6.736415 0
M  V30 20 O -2.998441 -1.739489 -6.467600 0
M  V30 21 O -2.426394 -3.294226 -8.206996 0
M  V30 22 C -3.054444 -4.321510 -5.854124 0
M  V30 23 C -4.432507 -4.674590 -6.425897 0
M  V30 24 C -3.259423 -5.633540 -6.502480 0
M  V30 25 C 2.240970 -2.440275 -5.466903 0
M  V30 26 C 2.051668 -1.023197 -5.876136 0 CFG=1
M  V30 27 C 1.174278 -0.586580 -6.964186 0
M  V30 28 C 0.967748 0.731892 -7.124892 0
M  V30 29 C 1.560018 1.786848 -6.304373 0
M  V30 30 C 0.512797 2.547544 -5.463089 0
M  V30 31 C 1.139028 3.629889 -4.677663 0
M  V30 32 C 0.319423 4.116444 -3.467803 0
M  V30 33 N 0.261893 2.968738 -2.523430 0
M  V30 34 C 1.470854 2.954520 -1.740571 0
M  V30 35 C -0.398039 1.847721 -2.011642 0
M  V30 36 O -1.345996 2.211136 -2.726509 0
M  V30 37 C -0.455079 0.693197 -1.181830 0 CFG=2
M  V30 38 C -0.783166 0.922836 0.242822 0
M  V30 39 C 0.156241 -0.137770 4.274130 0
M  V30 40 C 0.021410 -0.238419 5.659052 0
M  V30 41 C 1.062724 0.278165 6.596559 0
M  V30 42 N 2.085907 0.799064 6.513281 0
M  V30 43 C 2.875783 1.186120 7.505249 0
M  V30 44 C 4.191625 1.856022 7.201509 0
M  V30 45 C 4.070311 2.985573 6.241658 0
M  V30 46 C 5.075291 0.765273 6.591871 0
M  V30 47 C 2.389106 0.920327 8.805435 0
M  V30 48 S 0.789476 0.112611 8.459860 0
M  V30 49 N -1.065915 -0.814946 6.173659 0
M  V30 50 C -2.054565 -1.312388 5.424923 0
M  V30 51 C -3.190417 -1.911047 5.927475 0
M  V30 52 C -3.306946 -2.004899 7.401481 0
M  V30 53 H -6.995825 -4.134269 5.573368 0
M  V30 54 H -6.953926 -2.709694 4.453242 0
M  V30 55 H -5.910669 -4.149797 4.112977 0
M  V30 56 H -4.782693 -2.671109 3.114969 0
M  V30 57 H -2.807809 -1.627115 2.203465 0
M  V30 58 H -1.502874 -1.047542 0.523777 0
M  V30 59 H 1.531133 -0.860194 0.768036 0
M  V30 60 H 0.522003 -2.084221 -0.056542 0
M  V30 61 H 1.732243 0.385105 -1.097466 0
M  V30 62 H 1.834407 0.032335 -3.594417 0
M  V30 63 H 0.159015 -3.367799 -6.864401 0
M  V30 64 H -3.061128 -4.278960 -4.745171 0
M  V30 65 H -5.259929 -4.867938 -5.742179 0
M  V30 66 H -4.716546 -4.291047 -7.422514 0
M  V30 67 H -3.393509 -6.558300 -5.914015 0
M  V30 68 H -2.757020 -5.818889 -7.474378 0
M  V30 69 H 3.116825 -2.705664 -4.824789 0
M  V30 70 H 2.014422 -3.206676 -6.203598 0
M  V30 71 H 2.863400 -0.364680 -5.527473 0
M  V30 72 H 0.655613 -1.191502 -7.678926 0
M  V30 73 H 0.304323 1.104816 -7.926305 0
M  V30 74 H 1.936298 2.591406 -7.010184 0
M  V30 75 H 2.342120 1.510720 -5.609279 0
M  V30 76 H -0.136094 3.029181 -6.257587 0
M  V30 77 H -0.133907 1.856917 -4.947126 0
M  V30 78 H 2.146459 3.325478 -4.325367 0
M  V30 79 H 1.278978 4.550365 -5.303155 0
M  V30 80 H 0.844095 4.951306 -3.034532 0
M  V30 81 H -0.656251 4.424451 -3.825645 0
M  V30 82 H 2.234710 2.335824 -2.313381 0
M  V30 83 H 2.004869 3.968142 -1.728569 0
M  V30 84 H 1.403858 2.710992 -0.688162 0
M  V30 85 H -1.305541 0.044988 -1.586687 0
M  V30 86 H -1.871658 1.149348 0.346837 0
M  V30 87 H -0.141499 1.656488 0.713166 0
M  V30 88 H 1.105845 0.361450 4.021170 0
M  V30 89 H 4.663329 2.148617 8.171142 0
M  V30 90 H 4.740335 3.806779 6.616583 0
M  V30 91 H 4.474633 2.679874 5.238809 0
M  V30 92 H 3.038824 3.353239 6.114959 0
M  V30 93 H 4.461067 0.203479 5.868977 0
M  V30 94 H 5.957872 1.167053 6.093602 0
M  V30 95 H 5.444974 0.126306 7.422820 0
M  V30 96 H 2.942671 1.188823 9.699713 0
M  V30 97 H -2.735882 -1.199201 7.904079 0
M  V30 98 H -4.366734 -1.848543 7.696994 0
M  V30 99 H -3.002245 -3.012905 7.722511 0
M  V30 END ATOM
M  V30 BEGIN BOND
M  V30 1 1 1 2
M  V30 2 1 2 3
M  V30 3 2 3 4
M  V30 4 1 4 5
M  V30 5 2 5 6
M  V30 6 1 6 7
M  V30 7 1 7 8
M  V30 8 1 8 9
M  V30 9 1 9 10
M  V30 10 1 10 11
M  V30 11 1 11 12
M  V30 12 2 12 13
M  V30 13 1 12 14
M  V30 14 1 14 15
M  V30 15 1 15 16 CFG=3
M  V30 16 2 16 17
M  V30 17 1 16 18
M  V30 18 1 18 19
M  V30 19 2 19 20
M  V30 20 2 19 21
M  V30 21 1 19 22
M  V30 22 1 22 23
M  V30 23 1 23 24
M  V30 24 1 15 25
M  V30 25 1 25 26
M  V30 26 1 26 27
M  V30 27 2 27 28
M  V30 28 1 28 29
M  V30 29 1 29 30
M  V30 30 1 30 31
M  V30 31 1 31 32
M  V30 32 1 32 33
M  V30 33 1 33 34
M  V30 34 1 33 35
M  V30 35 2 35 36
M  V30 36 1 35 37
M  V30 37 1 37 38
M  V30 38 2 7 39
M  V30 39 1 39 40
M  V30 40 1 40 41
M  V30 41 2 41 42
M  V30 42 1 42 43
M  V30 43 1 43 44
M  V30 44 1 44 45
M  V30 45 1 44 46
M  V30 46 2 43 47
M  V30 47 1 47 48
M  V30 48 2 40 49
M  V30 49 1 49 50
M  V30 50 2 50 51
M  V30 51 1 51 52
M  V30 52 1 51 3
M  V30 53 1 50 6
M  V30 54 1 38 9
M  V30 55 1 48 41
M  V30 56 1 37 11
M  V30 57 1 26 15
M  V30 58 1 24 22
M  V30 59 1 1 53
M  V30 60 1 1 54
M  V30 61 1 1 55
M  V30 62 1 4 56
M  V30 63 1 5 57
M  V30 64 1 9 58 CFG=1
M  V30 65 1 10 59
M  V30 66 1 10 60
M  V30 67 1 11 61 CFG=1
M  V30 68 1 14 62
M  V30 69 1 18 63
M  V30 70 1 22 64
M  V30 71 1 23 65
M  V30 72 1 23 66
M  V30 73 1 24 67
M  V30 74 1 24 68
M  V30 75 1 25 69
M  V30 76 1 25 70
M  V30 77 1 26 71 CFG=1
M  V30 78 1 27 72
M  V30 79 1 28 73
M  V30 80 1 29 74
M  V30 81 1 29 75
M  V30 82 1 30 76
M  V30 83 1 30 77
M  V30 84 1 31 78
M  V30 85 1 31 79
M  V30 86 1 32 80
M  V30 87 1 32 81
M  V30 88 1 34 82
M  V30 89 1 34 83
M  V30 90 1 34 84
M  V30 91 1 37 85 CFG=3
M  V30 92 1 38 86
M  V30 93 1 38 87
M  V30 94 1 39 88
M  V30 95 1 44 89
M  V30 96 1 45 90
M  V30 97 1 45 91
M  V30 98 1 45 92
M  V30 99 1 46 93
M  V30 100 1 46 94
M  V30 101 1 46 95
M  V30 102 1 47 96
M  V30 103 1 52 97
M  V30 104 1 52 98
M  V30 105 1 52 99
M  V30 END BOND
M  V30 END CTAB
M  END
>  <Dataset>  (891) 
OralDrugs

>  <Ligand_Instance>  (891) 
nan

>  <PDB_ID>  (891) 
nan

>  <Standardized_SMILES>  (891) 
COc1ccc2c(O[C@@H]3C[C@H]4C(=O)N[C@]5(C(=O)NS(=O)(=O)C6CC6)C[C@H]5/C=C\CCCCN(C)C(=O)[C@@H]4C3)cc(-c3nc(C(C)C)cs3)nc2c1C

>  <Name>  (891) 
Simeprevir

>  <Pocket>  (891) 
nan

>  <ATP_Site>  (891) 
nan

>  <Peripheral>  (891) 
nan

>  <Num_H_Atoms_ProtBoundConf>  (891) 
nan

>  <Num_Resolved_Atoms>  (891) 
nan

>  <Num_Not_Resolved_Atoms>  (891) 
nan

$$$$
CHEMBL2336071
     RDKit          3D

  0  0  0  0  0  0  0  0  0  0999 V3000
M  V30 BEGIN CTAB
M  V30 COUNTS 72 75 0 0 0
M  V30 BEGIN ATOM
M  V30 1 C 1.521975 -2.365695 4.493182 0
M  V30 2 C 1.485385 -2.520927 2.957394 0
M  V30 3 C 2.432322 -1.500633 2.452759 0
M  V30 4 C 1.886596 -0.294950 1.997442 0
M  V30 5 C 2.614651 0.788868 1.555307 0
M  V30 6 C 1.973103 2.012923 1.093044 0
M  V30 7 C 2.826035 3.142271 0.630060 0
M  V30 8 N 0.689761 2.085702 1.095656 0
M  V30 9 O 0.070871 3.240309 0.659804 0
M  V30 10 C -1.284334 3.533984 0.773619 0
M  V30 11 C -2.194326 2.585299 0.094024 0
M  V30 12 C -2.620502 2.714690 -1.209661 0
M  V30 13 C -3.478011 1.755974 -1.731126 0
M  V30 14 C -3.940929 0.673072 -1.038156 0
M  V30 15 C -4.890567 -0.301739 -1.683960 0
M  V30 16 C -6.303808 0.137159 -1.521159 0
M  V30 17 C -7.085559 0.453277 -2.729299 0
M  V30 18 C -6.644467 -0.260527 -3.976673 0
M  V30 19 C -5.155194 -0.153977 -4.199817 0
M  V30 20 C -4.462185 -0.745264 -3.031053 0
M  V30 21 C -3.514613 0.541193 0.267642 0
M  V30 22 C -3.929158 -0.602020 1.115490 0
M  V30 23 F -3.514585 -1.826831 0.643493 0
M  V30 24 F -3.360571 -0.466338 2.366256 0
M  V30 25 F -5.303990 -0.586069 1.341639 0
M  V30 26 C -2.649657 1.506727 0.797344 0
M  V30 27 C 4.007232 0.675178 1.562622 0
M  V30 28 C 4.545617 -0.515448 2.010780 0
M  V30 29 C 3.802735 -1.614877 2.457767 0
M  V30 30 C 4.477394 -2.854352 2.837838 0
M  V30 31 N 4.694603 -3.824204 1.855743 0
M  V30 32 C 3.766572 -4.317005 0.940151 0
M  V30 33 C 4.760827 -4.232001 -0.225338 0
M  V30 34 C 5.158574 -5.541274 -0.793505 0
M  V30 35 O 4.937122 -5.798808 -2.022239 0
M  V30 36 O 5.775393 -6.566619 -0.099205 0
M  V30 37 C 5.677506 -3.667318 0.841829 0
M  V30 38 H 0.636897 -1.786490 4.846288 0
M  V30 39 H 1.536198 -3.337274 5.000744 0
M  V30 40 H 2.415829 -1.808568 4.827195 0
M  V30 41 H 0.464155 -2.280851 2.637319 0
M  V30 42 H 1.750933 -3.557533 2.777459 0
M  V30 43 H 0.809196 -0.182698 1.981505 0
M  V30 44 H 3.291078 3.710594 1.444186 0
M  V30 45 H 2.240641 3.866071 0.009744 0
M  V30 46 H 3.573534 2.720325 -0.101381 0
M  V30 47 H -1.434463 4.573270 0.388894 0
M  V30 48 H -1.519700 3.619307 1.867369 0
M  V30 49 H -2.259927 3.570512 -1.772309 0
M  V30 50 H -3.742514 1.963274 -2.757127 0
M  V30 51 H -4.801119 -1.222486 -1.036924 0
M  V30 52 H -6.900939 -0.548441 -0.847356 0
M  V30 53 H -6.280773 1.089524 -0.909999 0
M  V30 54 H -7.149026 1.551458 -2.985091 0
M  V30 55 H -8.146673 0.168533 -2.571785 0
M  V30 56 H -6.946443 -1.327377 -3.994106 0
M  V30 57 H -7.137160 0.224410 -4.841052 0
M  V30 58 H -4.834745 0.829679 -4.534592 0
M  V30 59 H -4.950546 -0.836602 -5.079228 0
M  V30 60 H -4.588382 -1.865149 -3.113037 0
M  V30 61 H -3.377042 -0.532678 -3.136889 0
M  V30 62 H -2.332800 1.371927 1.833328 0
M  V30 63 H 4.641875 1.475783 1.236449 0
M  V30 64 H 5.627173 -0.636391 2.027807 0
M  V30 65 H 3.995589 -3.268613 3.764323 0
M  V30 66 H 5.499630 -2.533688 3.219331 0
M  V30 67 H 3.539085 -5.397570 1.113936 0
M  V30 68 H 2.833018 -3.754569 0.723358 0
M  V30 69 H 4.489203 -3.531521 -1.024691 0
M  V30 70 H 5.642743 -7.517079 -0.408210 0
M  V30 71 H 6.513918 -4.386797 0.996872 0
M  V30 72 H 6.012013 -2.630176 0.708606 0
M  V30 END ATOM
M  V30 BEGIN BOND
M  V30 1 1 1 2
M  V30 2 1 2 3
M  V30 3 2 3 4
M  V30 4 1 4 5
M  V30 5 1 5 6
M  V30 6 1 6 7
M  V30 7 2 6 8
M  V30 8 1 8 9
M  V30 9 1 9 10
M  V30 10 1 10 11
M  V30 11 2 11 12
M  V30 12 1 12 13
M  V30 13 2 13 14
M  V30 14 1 14 15
M  V30 15 1 15 16
M  V30 16 1 16 17
M  V30 17 1 17 18
M  V30 18 1 18 19
M  V30 19 1 19 20
M  V30 20 1 14 21
M  V30 21 1 21 22
M  V30 22 1 22 23
M  V30 23 1 22 24
M  V30 24 1 22 25
M  V30 25 2 21 26
M  V30 26 2 5 27
M  V30 27 1 27 28
M  V30 28 2 28 29
M  V30 29 1 29 30
M  V30 30 1 30 31
M  V30 31 1 31 32
M  V30 32 1 32 33
M  V30 33 1 33 34
M  V30 34 2 34 35
M  V30 35 1 34 36
M  V30 36 1 33 37
M  V30 37 1 29 3
M  V30 38 1 37 31
M  V30 39 1 26 11
M  V30 40 1 20 15
M  V30 41 1 1 38
M  V30 42 1 1 39
M  V30 43 1 1 40
M  V30 44 1 2 41
M  V30 45 1 2 42
M  V30 46 1 4 43
M  V30 47 1 7 44
M  V30 48 1 7 45
M  V30 49 1 7 46
M  V30 50 1 10 47
M  V30 51 1 10 48
M  V30 52 1 12 49
M  V30 53 1 13 50
M  V30 54 1 15 51
M  V30 55 1 16 52
M  V30 56 1 16 53
M  V30 57 1 17 54
M  V30 58 1 17 55
M  V30 59 1 18 56
M  V30 60 1 18 57
M  V30 61 1 19 58
M  V30 62 1 19 59
M  V30 63 1 20 60
M  V30 64 1 20 61
M  V30 65 1 26 62
M  V30 66 1 27 63
M  V30 67 1 28 64
M  V30 68 1 30 65
M  V30 69 1 30 66
M  V30 70 1 32 67
M  V30 71 1 32 68
M  V30 72 1 33 69
M  V30 73 1 36 70
M  V30 74 1 37 71
M  V30 75 1 37 72
M  V30 END BOND
M  V30 END CTAB
M  END
>  <Dataset>  (892) 
OralDrugs

>  <Ligand_Instance>  (892) 
nan

>  <PDB_ID>  (892) 
nan

>  <Standardized_SMILES>  (892) 
CCc1cc(/C(C)=N/OCc2ccc(C3CCCCC3)c(C(F)(F)F)c2)ccc1CN1CC(C(=O)O)C1

>  <Name>  (892) 
Siponimod

>  <Pocket>  (892) 
nan

>  <ATP_Site>  (892) 
nan

>  <Peripheral>  (892) 
nan

>  <Num_H_Atoms_ProtBoundConf>  (892) 
nan

>  <Num_Resolved_Atoms>  (892) 
nan

>  <Num_Not_Resolved_Atoms>  (892) 
nan

$$$$
CHEMBL413
     RDKit          3D

  0  0  0  0  0  0  0  0  0  0999 V3000
M  V30 BEGIN CTAB
M  V30 COUNTS 144 147 0 0 0
M  V30 BEGIN ATOM
M  V30 1 C 4.837945 1.196620 6.209975 0
M  V30 2 O 3.456248 1.197002 5.992994 0
M  V30 3 C 3.031812 -0.032128 5.404287 0 CFG=1
M  V30 4 C 2.211084 -0.800202 6.340038 0
M  V30 5 C 1.573853 -2.083706 6.025769 0 CFG=2
M  V30 6 C 2.370810 -3.213774 5.507451 0
M  V30 7 C 1.526422 -4.486885 5.794592 0
M  V30 8 C 0.246091 -4.306568 4.952815 0 CFG=1
M  V30 9 C -0.630859 -5.486271 5.219642 0
M  V30 10 C -0.412819 -3.065650 5.493106 0 CFG=1
M  V30 11 O -0.498888 -3.214377 6.864383 0
M  V30 12 O 0.410942 -1.932951 5.287780 0
M  V30 13 C -1.738737 -2.863748 4.874130 0
M  V30 14 O -2.712385 -2.930130 5.712316 0
M  V30 15 C -1.515754 -2.635874 3.449523 0
M  V30 16 O -0.646637 -2.653458 2.566222 0
M  V30 17 N -2.330318 -2.226790 2.331990 0
M  V30 18 C -3.596496 -1.924542 2.958414 0
M  V30 19 C -4.325315 -0.834346 2.188480 0
M  V30 20 C -3.416458 0.184191 1.572728 0
M  V30 21 C -2.360060 -0.444297 0.688491 0
M  V30 22 C -2.454866 -1.947741 0.922106 0 CFG=1
M  V30 23 C -1.582262 -2.727038 0.028000 0
M  V30 24 O -1.846701 -3.946435 0.185020 0
M  V30 25 O -0.661690 -2.121322 -0.816199 0
M  V30 26 C 0.178806 -2.742392 -1.730832 0 CFG=2
M  V30 27 C 1.662624 -2.553556 -1.550173 0 CFG=2
M  V30 28 C 2.152994 -3.040683 -0.236864 0
M  V30 29 C 2.214058 -1.242295 -1.922303 0
M  V30 30 C 3.662659 -0.985478 -1.788939 0 CFG=2
M  V30 31 C 4.507894 -1.963238 -2.616371 0
M  V30 32 C 5.823620 -1.316957 -2.913504 0
M  V30 33 C 6.147329 -0.144520 -2.050241 0 CFG=1
M  V30 34 O 5.846892 1.089128 -2.653664 0
M  V30 35 C 5.682544 -0.238820 -0.636424 0 CFG=2
M  V30 36 O 6.538702 -1.122316 0.044847 0
M  V30 37 C 7.243419 -0.371740 1.006019 0
M  V30 38 C 4.237184 -0.662181 -0.468612 0
M  V30 39 C -0.115438 -2.250081 -3.150564 0
M  V30 40 C -1.468881 -2.546379 -3.620077 0
M  V30 41 O -2.097938 -3.227482 -2.806764 0
M  V30 42 C -1.815639 -1.982709 -4.954240 0 CFG=2
M  V30 43 C -0.832718 -2.492649 -5.967862 0
M  V30 44 C -1.796781 -0.501334 -4.959791 0
M  V30 45 C -2.608187 0.541957 -5.173238 0
M  V30 46 C -4.022035 0.263418 -5.535036 0
M  V30 47 C -2.101602 1.931289 -5.035502 0 CFG=1
M  V30 48 O -2.221355 2.558946 -6.272690 0
M  V30 49 C -2.872079 2.717077 -4.021629 0 CFG=1
M  V30 50 O -2.876422 2.192144 -2.741739 0
M  V30 51 C -4.157917 1.962917 -2.300761 0
M  V30 52 C -2.305034 4.108208 -3.866638 0
M  V30 53 O -2.148252 4.628404 -4.939869 0
M  V30 54 C -1.872092 5.055170 -2.761329 0 CFG=2
M  V30 55 C -1.322351 6.249582 -3.503503 0
M  V30 56 C -0.955527 4.412094 -1.779900 0
M  V30 57 C -0.586119 5.218362 -0.579307 0 CFG=2
M  V30 58 C 0.262555 6.413293 -0.901651 0
M  V30 59 C 0.013864 4.461931 0.528833 0
M  V30 60 C 0.472699 3.250857 0.680289 0
M  V30 61 C 0.994381 2.877573 1.971476 0
M  V30 62 C 1.525918 1.817524 2.520519 0
M  V30 63 C 2.062144 1.373902 3.790537 0
M  V30 64 C 2.552140 0.177771 4.025964 0
M  V30 65 C 2.611810 -0.861845 2.974932 0
M  V30 66 H 5.189107 2.157224 6.671183 0
M  V30 67 H 5.197377 0.330543 6.790597 0
M  V30 68 H 5.358498 1.148693 5.232605 0
M  V30 69 H 4.023567 -0.584557 5.327222 0
M  V30 70 H 2.836151 -0.881290 7.308694 0
M  V30 71 H 1.385618 -0.088815 6.716841 0
M  V30 72 H 1.199434 -2.465296 7.061090 0
M  V30 73 H 3.308080 -3.410922 6.072997 0
M  V30 74 H 2.511772 -3.278791 4.413931 0
M  V30 75 H 2.107169 -5.322164 5.354494 0
M  V30 76 H 1.294453 -4.585532 6.853396 0
M  V30 77 H 0.557912 -4.209575 3.900075 0
M  V30 78 H -0.129124 -6.246530 5.889053 0
M  V30 79 H -1.548070 -5.200612 5.812337 0
M  V30 80 H -1.007170 -5.989475 4.305560 0
M  V30 81 H -1.387146 -3.371872 7.227093 0
M  V30 82 H -4.222891 -2.853792 2.801372 0
M  V30 83 H -3.614737 -1.744663 4.024016 0
M  V30 84 H -5.067659 -1.211013 1.493172 0
M  V30 85 H -4.923188 -0.262559 2.966472 0
M  V30 86 H -2.953997 0.816508 2.375010 0
M  V30 87 H -4.063412 0.886748 1.013070 0
M  V30 88 H -2.659605 -0.267082 -0.360696 0
M  V30 89 H -1.357360 -0.036468 0.827052 0
M  V30 90 H -3.538436 -2.175551 0.646130 0
M  V30 91 H 0.019024 -3.836731 -1.746210 0
M  V30 92 H 2.102259 -3.294914 -2.315165 0
M  V30 93 H 2.055874 -2.283290 0.557379 0
M  V30 94 H 3.175620 -3.435889 -0.259725 0
M  V30 95 H 1.424262 -3.854179 0.094790 0
M  V30 96 H 1.691596 -0.439167 -1.313200 0
M  V30 97 H 1.936158 -0.959038 -2.973242 0
M  V30 98 H 3.823777 -0.005071 -2.398068 0
M  V30 99 H 3.942403 -2.036434 -3.586664 0
M  V30 100 H 4.600545 -2.925699 -2.110654 0
M  V30 101 H 6.620140 -2.112514 -2.842483 0
M  V30 102 H 5.881420 -0.958611 -3.982474 0
M  V30 103 H 7.282401 -0.127609 -1.985178 0
M  V30 104 H 5.777088 0.913736 -3.624330 0
M  V30 105 H 5.867417 0.753359 -0.169604 0
M  V30 106 H 7.917474 -1.072673 1.540090 0
M  V30 107 H 6.566139 0.148618 1.709070 0
M  V30 108 H 7.803057 0.402726 0.443340 0
M  V30 109 H 4.233203 -1.421970 0.305916 0
M  V30 110 H 3.704213 0.275103 -0.112313 0
M  V30 111 H -0.001599 -1.144883 -3.194464 0
M  V30 112 H 0.625822 -2.721401 -3.811699 0
M  V30 113 H -2.810191 -2.382715 -5.257423 0
M  V30 114 H 0.059420 -1.867684 -6.072611 0
M  V30 115 H -0.535878 -3.567361 -5.772119 0
M  V30 116 H -1.298445 -2.527118 -6.988120 0
M  V30 117 H -0.773382 -0.238040 -4.721918 0
M  V30 118 H -4.563506 -0.295447 -4.756136 0
M  V30 119 H -4.112438 -0.346434 -6.465947 0
M  V30 120 H -4.589070 1.185671 -5.720004 0
M  V30 121 H -1.003063 1.937578 -4.822236 0
M  V30 122 H -2.076203 1.938684 -7.030660 0
M  V30 123 H -3.947782 2.783070 -4.324878 0
M  V30 124 H -4.716813 1.251948 -2.928782 0
M  V30 125 H -4.193819 1.530334 -1.276187 0
M  V30 126 H -4.648438 2.954071 -2.210791 0
M  V30 127 H -2.806988 5.456808 -2.255566 0
M  V30 128 H -0.355126 6.069194 -3.997247 0
M  V30 129 H -1.380965 7.128181 -2.850868 0
M  V30 130 H -2.120015 6.458771 -4.300721 0
M  V30 131 H -0.009774 4.167875 -2.364117 0
M  V30 132 H -1.329055 3.387152 -1.501677 0
M  V30 133 H -1.571433 5.698300 -0.186616 0
M  V30 134 H 0.658280 6.332131 -1.928579 0
M  V30 135 H 1.172561 6.417286 -0.228339 0
M  V30 136 H -0.285964 7.362969 -0.810366 0
M  V30 137 H 0.050861 5.152946 1.379771 0
M  V30 138 H 0.638649 2.324859 0.190034 0
M  V30 139 H 0.972480 3.625579 2.744201 0
M  V30 140 H 1.558657 1.043998 1.777728 0
M  V30 141 H 1.889591 2.294283 4.297730 0
M  V30 142 H 3.475454 -1.540123 3.224480 0
M  V30 143 H 1.701582 -1.462821 3.015574 0
M  V30 144 H 2.763889 -0.458220 1.947195 0
M  V30 END ATOM
M  V30 BEGIN BOND
M  V30 1 1 1 2
M  V30 2 1 2 3
M  V30 3 1 3 4
M  V30 4 1 4 5
M  V30 5 1 5 6
M  V30 6 1 6 7
M  V30 7 1 7 8
M  V30 8 1 8 9
M  V30 9 1 8 10
M  V30 10 1 10 11 CFG=1
M  V30 11 1 10 12
M  V30 12 1 10 13
M  V30 13 2 13 14
M  V30 14 1 13 15
M  V30 15 2 15 16
M  V30 16 1 15 17
M  V30 17 1 17 18
M  V30 18 1 18 19
M  V30 19 1 19 20
M  V30 20 1 20 21
M  V30 21 1 21 22
M  V30 22 1 22 23
M  V30 23 2 23 24
M  V30 24 1 23 25
M  V30 25 1 25 26
M  V30 26 1 26 27
M  V30 27 1 27 28
M  V30 28 1 27 29
M  V30 29 1 29 30
M  V30 30 1 30 31
M  V30 31 1 31 32
M  V30 32 1 32 33
M  V30 33 1 33 34
M  V30 34 1 33 35
M  V30 35 1 35 36
M  V30 36 1 36 37
M  V30 37 1 35 38
M  V30 38 1 26 39
M  V30 39 1 39 40
M  V30 40 2 40 41
M  V30 41 1 40 42
M  V30 42 1 42 43
M  V30 43 1 42 44
M  V30 44 2 44 45
M  V30 45 1 45 46
M  V30 46 1 45 47
M  V30 47 1 47 48
M  V30 48 1 47 49
M  V30 49 1 49 50
M  V30 50 1 50 51
M  V30 51 1 49 52
M  V30 52 2 52 53
M  V30 53 1 52 54
M  V30 54 1 54 55
M  V30 55 1 54 56
M  V30 56 1 56 57
M  V30 57 1 57 58
M  V30 58 1 57 59
M  V30 59 2 59 60
M  V30 60 1 60 61
M  V30 61 2 61 62
M  V30 62 1 62 63
M  V30 63 2 63 64
M  V30 64 1 64 65
M  V30 65 1 64 3
M  V30 66 1 12 5
M  V30 67 1 22 17
M  V30 68 1 38 30
M  V30 69 1 1 66
M  V30 70 1 1 67
M  V30 71 1 1 68
M  V30 72 1 3 69 CFG=3
M  V30 73 1 4 70
M  V30 74 1 4 71
M  V30 75 1 5 72 CFG=1
M  V30 76 1 6 73
M  V30 77 1 6 74
M  V30 78 1 7 75
M  V30 79 1 7 76
M  V30 80 1 8 77 CFG=3
M  V30 81 1 9 78
M  V30 82 1 9 79
M  V30 83 1 9 80
M  V30 84 1 11 81
M  V30 85 1 18 82
M  V30 86 1 18 83
M  V30 87 1 19 84
M  V30 88 1 19 85
M  V30 89 1 20 86
M  V30 90 1 20 87
M  V30 91 1 21 88
M  V30 92 1 21 89
M  V30 93 1 22 90 CFG=3
M  V30 94 1 26 91 CFG=3
M  V30 95 1 27 92 CFG=3
M  V30 96 1 28 93
M  V30 97 1 28 94
M  V30 98 1 28 95
M  V30 99 1 29 96
M  V30 100 1 29 97
M  V30 101 1 30 98 CFG=3
M  V30 102 1 31 99
M  V30 103 1 31 100
M  V30 104 1 32 101
M  V30 105 1 32 102
M  V30 106 1 33 103 CFG=1
M  V30 107 1 34 104
M  V30 108 1 35 105 CFG=1
M  V30 109 1 37 106
M  V30 110 1 37 107
M  V30 111 1 37 108
M  V30 112 1 38 109
M  V30 113 1 38 110
M  V30 114 1 39 111
M  V30 115 1 39 112
M  V30 116 1 42 113 CFG=3
M  V30 117 1 43 114
M  V30 118 1 43 115
M  V30 119 1 43 116
M  V30 120 1 44 117
M  V30 121 1 46 118
M  V30 122 1 46 119
M  V30 123 1 46 120
M  V30 124 1 47 121 CFG=1
M  V30 125 1 48 122
M  V30 126 1 49 123 CFG=3
M  V30 127 1 51 124
M  V30 128 1 51 125
M  V30 129 1 51 126
M  V30 130 1 54 127 CFG=1
M  V30 131 1 55 128
M  V30 132 1 55 129
M  V30 133 1 55 130
M  V30 134 1 56 131
M  V30 135 1 56 132
M  V30 136 1 57 133 CFG=1
M  V30 137 1 58 134
M  V30 138 1 58 135
M  V30 139 1 58 136
M  V30 140 1 59 137
M  V30 141 1 60 138
M  V30 142 1 61 139
M  V30 143 1 62 140
M  V30 144 1 63 141
M  V30 145 1 65 142
M  V30 146 1 65 143
M  V30 147 1 65 144
M  V30 END BOND
M  V30 END CTAB
M  END
>  <Dataset>  (893) 
OralDrugs

>  <Ligand_Instance>  (893) 
nan

>  <PDB_ID>  (893) 
nan

>  <Standardized_SMILES>  (893) 
CO[C@H]1C[C@@H]2CC[C@@H](C)[C@@](O)(O2)C(=O)C(=O)N2CCCC[C@H]2C(=O)O[C@H]([C@H](C)C[C@@H]2CC[C@@H](O)[C@H](OC)C2)CC(=O)[C@H](C)/C=C(\C)[C@@H](O)[C@@H](OC)C(=O)[C@H](C)C[C@H](C)/C=C/C=C/C=C/1C

>  <Name>  (893) 
Sirolimus

>  <Pocket>  (893) 
nan

>  <ATP_Site>  (893) 
nan

>  <Peripheral>  (893) 
nan

>  <Num_H_Atoms_ProtBoundConf>  (893) 
nan

>  <Num_Resolved_Atoms>  (893) 
nan

>  <Num_Not_Resolved_Atoms>  (893) 
nan

$$$$
CHEMBL1422
     RDKit          3D

  0  0  0  0  0  0  0  0  0  0999 V3000
M  V30 BEGIN CTAB
M  V30 COUNTS 43 45 0 0 0
M  V30 BEGIN ATOM
M  V30 1 N 1.341180 -3.187323 3.313757 0
M  V30 2 C 0.137535 -3.045472 2.494435 0 CFG=1
M  V30 3 C -0.121711 -1.584454 2.339977 0
M  V30 4 C 1.016310 -0.929617 1.685301 0
M  V30 5 O 2.091015 -1.445802 1.281423 0
M  V30 6 N 1.240208 0.411134 1.327763 0
M  V30 7 C 2.526061 0.629054 0.682946 0
M  V30 8 C 2.432789 1.895053 -0.151304 0
M  V30 9 N 1.634719 2.922089 0.488180 0
M  V30 10 C 0.610883 2.687620 1.307494 0
M  V30 11 N 0.097582 3.864061 1.717917 0
M  V30 12 N 0.824370 4.823840 1.136079 0
M  V30 13 C 1.781624 4.270358 0.370119 0
M  V30 14 C 2.736320 5.114942 -0.394358 0
M  V30 15 F 3.542013 5.807003 0.493997 0
M  V30 16 F 3.488938 4.333761 -1.263277 0
M  V30 17 F 2.032908 6.031606 -1.148082 0
M  V30 18 C 0.162869 1.314854 1.664017 0
M  V30 19 C 0.306552 -3.772356 1.188054 0
M  V30 20 C -0.919751 -3.626284 0.358895 0
M  V30 21 C -1.016213 -2.775278 -0.727519 0
M  V30 22 C -2.189126 -2.685751 -1.458919 0
M  V30 23 F -2.205804 -1.822620 -2.516911 0
M  V30 24 C -3.285230 -3.450712 -1.109635 0
M  V30 25 F -4.439515 -3.357236 -1.836023 0
M  V30 26 C -3.163622 -4.301002 -0.010803 0
M  V30 27 C -2.001137 -4.399403 0.725662 0
M  V30 28 F -1.942289 -5.238485 1.779192 0
M  V30 29 H 1.120875 -3.576428 4.260582 0
M  V30 30 H 1.834419 -2.282055 3.446862 0
M  V30 31 H -0.681529 -3.544323 3.051814 0
M  V30 32 H -1.065224 -1.439837 1.759923 0
M  V30 33 H -0.328000 -1.153703 3.332015 0
M  V30 34 H 2.716766 -0.201635 -0.047625 0
M  V30 35 H 3.355843 0.627215 1.387374 0
M  V30 36 H 3.484211 2.221504 -0.306727 0
M  V30 37 H 2.051376 1.640100 -1.161215 0
M  V30 38 H -0.819523 1.043487 1.282999 0
M  V30 39 H 0.080282 1.252922 2.789313 0
M  V30 40 H 1.152676 -3.461334 0.578880 0
M  V30 41 H 0.471363 -4.863951 1.421555 0
M  V30 42 H -0.115951 -2.212326 -0.934012 0
M  V30 43 H -4.002097 -4.912599 0.288675 0
M  V30 END ATOM
M  V30 BEGIN BOND
M  V30 1 1 1 2
M  V30 2 1 2 3
M  V30 3 1 3 4
M  V30 4 2 4 5
M  V30 5 1 4 6
M  V30 6 1 6 7
M  V30 7 1 7 8
M  V30 8 1 8 9
M  V30 9 1 9 10
M  V30 10 2 10 11
M  V30 11 1 11 12
M  V30 12 2 12 13
M  V30 13 1 13 14
M  V30 14 1 14 15
M  V30 15 1 14 16
M  V30 16 1 14 17
M  V30 17 1 10 18
M  V30 18 1 2 19
M  V30 19 1 19 20
M  V30 20 2 20 21
M  V30 21 1 21 22
M  V30 22 1 22 23
M  V30 23 2 22 24
M  V30 24 1 24 25
M  V30 25 1 24 26
M  V30 26 2 26 27
M  V30 27 1 27 28
M  V30 28 1 18 6
M  V30 29 1 27 20
M  V30 30 1 13 9
M  V30 31 1 1 29
M  V30 32 1 1 30
M  V30 33 1 2 31 CFG=1
M  V30 34 1 3 32
M  V30 35 1 3 33
M  V30 36 1 7 34
M  V30 37 1 7 35
M  V30 38 1 8 36
M  V30 39 1 8 37
M  V30 40 1 18 38
M  V30 41 1 18 39
M  V30 42 1 19 40
M  V30 43 1 19 41
M  V30 44 1 21 42
M  V30 45 1 26 43
M  V30 END BOND
M  V30 END CTAB
M  END
>  <Dataset>  (894) 
OralDrugs

>  <Ligand_Instance>  (894) 
nan

>  <PDB_ID>  (894) 
nan

>  <Standardized_SMILES>  (894) 
N[C@@H](CC(=O)N1CCn2c(nnc2C(F)(F)F)C1)Cc1cc(F)c(F)cc1F

>  <Name>  (894) 
Sitagliptin

>  <Pocket>  (894) 
nan

>  <ATP_Site>  (894) 
nan

>  <Peripheral>  (894) 
nan

>  <Num_H_Atoms_ProtBoundConf>  (894) 
nan

>  <Num_Resolved_Atoms>  (894) 
nan

>  <Num_Not_Resolved_Atoms>  (894) 
nan

$$$$
CHEMBL1356
     RDKit          3D

  0  0  0  0  0  0  0  0  0  0999 V3000
M  V30 BEGIN CTAB
M  V30 COUNTS 15 15 0 0 0
M  V30 BEGIN ATOM
M  V30 1 O 1.568861 -1.933172 3.192618 0
M  V30 2 C 1.420501 -1.709927 1.960584 0
M  V30 3 O 1.487284 -2.929445 1.299923 0
M  V30 4 C 1.216029 -0.405023 1.345596 0
M  V30 5 C 1.061513 -0.245071 -0.016753 0
M  V30 6 C 0.873324 1.021852 -0.510773 0
M  V30 7 C 0.832643 2.142518 0.302770 0
M  V30 8 C 0.993635 1.918424 1.659787 0
M  V30 9 C 1.187440 0.659963 2.218829 0
M  V30 10 H 0.849974 -3.705361 1.512255 0
M  V30 11 H 1.095381 -1.137638 -0.650149 0
M  V30 12 H 0.759207 1.087358 -1.574157 0
M  V30 13 H 0.684094 3.130633 -0.100221 0
M  V30 14 H 0.955645 2.824185 2.266531 0
M  V30 15 H 1.305230 0.579540 3.302479 0
M  V30 END ATOM
M  V30 BEGIN BOND
M  V30 1 2 1 2
M  V30 2 1 2 3
M  V30 3 1 2 4
M  V30 4 2 4 5
M  V30 5 1 5 6
M  V30 6 2 6 7
M  V30 7 1 7 8
M  V30 8 2 8 9
M  V30 9 1 9 4
M  V30 10 1 3 10
M  V30 11 1 5 11
M  V30 12 1 6 12
M  V30 13 1 7 13
M  V30 14 1 8 14
M  V30 15 1 9 15
M  V30 END BOND
M  V30 END CTAB
M  END
>  <Dataset>  (895) 
OralDrugs

>  <Ligand_Instance>  (895) 
nan

>  <PDB_ID>  (895) 
nan

>  <Standardized_SMILES>  (895) 
O=C(O)c1ccccc1

>  <Name>  (895) 
Sodium Benzoate

>  <Pocket>  (895) 
nan

>  <ATP_Site>  (895) 
nan

>  <Peripheral>  (895) 
nan

>  <Num_H_Atoms_ProtBoundConf>  (895) 
nan

>  <Num_Resolved_Atoms>  (895) 
nan

>  <Num_Not_Resolved_Atoms>  (895) 
nan

$$$$
CHEMBL1200358
     RDKit          3D

  0  0  0  0  0  0  0  0  0  0999 V3000
M  V30 BEGIN CTAB
M  V30 COUNTS 18 18 0 0 0
M  V30 BEGIN ATOM
M  V30 1 O -0.998566 -1.047900 1.742381 0
M  V30 2 C -0.177508 -1.878736 1.261056 0
M  V30 3 O -0.603767 -3.198802 1.249332 0
M  V30 4 C 1.172042 -1.517574 0.727852 0
M  V30 5 C 1.377312 -0.059235 0.856371 0
M  V30 6 C 1.938443 0.541249 1.967996 0
M  V30 7 C 2.093500 1.902684 2.006719 0
M  V30 8 C 1.692110 2.686599 0.939073 0
M  V30 9 C 1.127601 2.070035 -0.176442 0
M  V30 10 C 0.970930 0.688495 -0.214242 0
M  V30 11 H -1.559544 -3.462129 1.037031 0
M  V30 12 H 1.905544 -2.076415 1.374789 0
M  V30 13 H 1.328356 -1.855667 -0.298920 0
M  V30 14 H 2.231438 -0.127636 2.769020 0
M  V30 15 H 2.537113 2.353779 2.890823 0
M  V30 16 H 1.803635 3.773359 0.942763 0
M  V30 17 H 0.827635 2.723498 -0.989514 0
M  V30 18 H 0.521699 0.307788 -1.126634 0
M  V30 END ATOM
M  V30 BEGIN BOND
M  V30 1 2 1 2
M  V30 2 1 2 3
M  V30 3 1 2 4
M  V30 4 1 4 5
M  V30 5 2 5 6
M  V30 6 1 6 7
M  V30 7 2 7 8
M  V30 8 1 8 9
M  V30 9 2 9 10
M  V30 10 1 10 5
M  V30 11 1 3 11
M  V30 12 1 4 12
M  V30 13 1 4 13
M  V30 14 1 6 14
M  V30 15 1 7 15
M  V30 16 1 8 16
M  V30 17 1 9 17
M  V30 18 1 10 18
M  V30 END BOND
M  V30 END CTAB
M  END
>  <Dataset>  (896) 
OralDrugs

>  <Ligand_Instance>  (896) 
nan

>  <PDB_ID>  (896) 
nan

>  <Standardized_SMILES>  (896) 
O=C(O)Cc1ccccc1

>  <Name>  (896) 
Sodium Phenylacetate

>  <Pocket>  (896) 
nan

>  <ATP_Site>  (896) 
nan

>  <Peripheral>  (896) 
nan

>  <Num_H_Atoms_ProtBoundConf>  (896) 
nan

>  <Num_Resolved_Atoms>  (896) 
nan

>  <Num_Not_Resolved_Atoms>  (896) 
nan

$$$$
CHEMBL1734
     RDKit          3D

  0  0  0  0  0  0  0  0  0  0999 V3000
M  V30 BEGIN CTAB
M  V30 COUNTS 53 57 0 0 0
M  V30 BEGIN ATOM
M  V30 1 O 0.127193 -1.429279 1.778578 0
M  V30 2 C -0.075306 -1.046134 0.614778 0
M  V30 3 O 1.088193 -0.662709 -0.031759 0
M  V30 4 C 2.342831 -0.693830 0.532384 0 CFG=1
M  V30 5 C 3.338378 -1.618225 -0.097404 0
M  V30 6 N 4.645917 -1.223927 0.401976 0
M  V30 7 C 4.597943 -0.730914 1.768006 0
M  V30 8 C 3.920497 0.633721 1.832663 0
M  V30 9 C 3.012719 0.669864 0.615274 0
M  V30 10 C 3.978080 0.877317 -0.537129 0
M  V30 11 C 5.100787 -0.131177 -0.451933 0
M  V30 12 N -1.269679 -0.928822 -0.171005 0
M  V30 13 C -1.264390 -0.425851 -1.565158 0
M  V30 14 C -2.585488 0.244452 -1.874744 0
M  V30 15 C -3.198964 0.816043 -0.643286 0
M  V30 16 C -3.696116 2.106303 -0.697042 0
M  V30 17 C -4.246914 2.693112 0.418377 0
M  V30 18 C -4.301462 1.986878 1.596652 0
M  V30 19 C -3.796216 0.721839 1.586400 0
M  V30 20 C -3.230270 0.041039 0.542815 0
M  V30 21 C -2.631302 -1.253478 0.253257 0 CFG=2
M  V30 22 C -2.714079 -2.319974 1.215967 0
M  V30 23 C -1.716316 -3.248392 0.875369 0
M  V30 24 C -1.512145 -4.435885 1.596700 0
M  V30 25 C -2.314510 -4.713281 2.682135 0
M  V30 26 C -3.303700 -3.833497 3.050572 0
M  V30 27 C -3.440200 -2.710256 2.306582 0
M  V30 28 H 2.227388 -1.075063 1.570259 0
M  V30 29 H 3.409669 -1.576501 -1.187899 0
M  V30 30 H 3.197598 -2.673728 0.266036 0
M  V30 31 H 4.057805 -1.442980 2.402031 0
M  V30 32 H 5.644625 -0.695560 2.117510 0
M  V30 33 H 3.277323 0.758516 2.703756 0
M  V30 34 H 4.658224 1.456853 1.736106 0
M  V30 35 H 2.277213 1.481313 0.667417 0
M  V30 36 H 4.425968 1.877993 -0.362835 0
M  V30 37 H 3.483767 0.925827 -1.515369 0
M  V30 38 H 6.000970 0.282784 0.046729 0
M  V30 39 H 5.427931 -0.501187 -1.442519 0
M  V30 40 H -1.168817 -1.309613 -2.207756 0
M  V30 41 H -0.394058 0.229530 -1.732066 0
M  V30 42 H -3.278687 -0.440994 -2.393541 0
M  V30 43 H -2.364191 1.082537 -2.559642 0
M  V30 44 H -3.697380 2.737856 -1.573177 0
M  V30 45 H -4.645712 3.697216 0.416800 0
M  V30 46 H -4.704851 2.352239 2.505083 0
M  V30 47 H -3.799881 0.150698 2.492672 0
M  V30 48 H -3.139048 -1.666702 -0.683914 0
M  V30 49 H -0.967476 -3.256577 0.063868 0
M  V30 50 H -0.782918 -5.207275 1.421771 0
M  V30 51 H -2.222981 -5.607555 3.293319 0
M  V30 52 H -3.974189 -3.968223 3.880340 0
M  V30 53 H -4.217704 -2.010320 2.543597 0
M  V30 END ATOM
M  V30 BEGIN BOND
M  V30 1 2 1 2
M  V30 2 1 2 3
M  V30 3 1 3 4
M  V30 4 1 4 5
M  V30 5 1 5 6
M  V30 6 1 6 7
M  V30 7 1 7 8
M  V30 8 1 8 9
M  V30 9 1 9 10
M  V30 10 1 10 11
M  V30 11 1 2 12
M  V30 12 1 12 13
M  V30 13 1 13 14
M  V30 14 1 14 15
M  V30 15 2 15 16
M  V30 16 1 16 17
M  V30 17 2 17 18
M  V30 18 1 18 19
M  V30 19 2 19 20
M  V30 20 1 20 21
M  V30 21 1 21 22
M  V30 22 2 22 23
M  V30 23 1 23 24
M  V30 24 2 24 25
M  V30 25 1 25 26
M  V30 26 2 26 27
M  V30 27 1 9 4
M  V30 28 1 21 12
M  V30 29 1 27 22
M  V30 30 1 11 6
M  V30 31 1 20 15
M  V30 32 1 4 28 CFG=1
M  V30 33 1 5 29
M  V30 34 1 5 30
M  V30 35 1 7 31
M  V30 36 1 7 32
M  V30 37 1 8 33
M  V30 38 1 8 34
M  V30 39 1 9 35
M  V30 40 1 10 36
M  V30 41 1 10 37
M  V30 42 1 11 38
M  V30 43 1 11 39
M  V30 44 1 13 40
M  V30 45 1 13 41
M  V30 46 1 14 42
M  V30 47 1 14 43
M  V30 48 1 16 44
M  V30 49 1 17 45
M  V30 50 1 18 46
M  V30 51 1 19 47
M  V30 52 1 21 48 CFG=3
M  V30 53 1 23 49
M  V30 54 1 24 50
M  V30 55 1 25 51
M  V30 56 1 26 52
M  V30 57 1 27 53
M  V30 END BOND
M  V30 END CTAB
M  END
>  <Dataset>  (897) 
OralDrugs

>  <Ligand_Instance>  (897) 
nan

>  <PDB_ID>  (897) 
nan

>  <Standardized_SMILES>  (897) 
O=C(O[C@H]1CN2CCC1CC2)N1CCc2ccccc2[C@@H]1c1ccccc1

>  <Name>  (897) 
Solifenacin

>  <Pocket>  (897) 
nan

>  <ATP_Site>  (897) 
nan

>  <Peripheral>  (897) 
nan

>  <Num_H_Atoms_ProtBoundConf>  (897) 
nan

>  <Num_Resolved_Atoms>  (897) 
nan

>  <Num_Not_Resolved_Atoms>  (897) 
nan

$$$$
CHEMBL4297620
     RDKit          3D

  0  0  0  0  0  0  0  0  0  0999 V3000
M  V30 BEGIN CTAB
M  V30 COUNTS 28 28 0 0 0
M  V30 BEGIN ATOM
M  V30 1 N 2.235630 -2.509614 4.176565 0
M  V30 2 C 1.250299 -1.597433 3.703306 0
M  V30 3 O 1.154234 -0.555894 4.401660 0
M  V30 4 O 0.469398 -1.807418 2.599131 0
M  V30 5 C -0.511587 -0.894917 2.130170 0
M  V30 6 C 0.121814 0.430640 1.779664 0 CFG=2
M  V30 7 N -0.859380 1.385192 1.299842 0
M  V30 8 C 1.223934 0.246614 0.751328 0
M  V30 9 C 0.602452 -0.350379 -0.458328 0
M  V30 10 C 0.443246 -1.672850 -0.786447 0
M  V30 11 C -0.170914 -2.003715 -1.974100 0
M  V30 12 C -0.648911 -1.073137 -2.879098 0
M  V30 13 C -0.486023 0.256905 -2.543882 0
M  V30 14 C 0.127578 0.610354 -1.356883 0
M  V30 15 H 2.431070 -2.656326 5.203436 0
M  V30 16 H 2.991737 -3.225574 4.104318 0
M  V30 17 H -1.235615 -0.727783 2.955046 0
M  V30 18 H -1.074194 -1.319189 1.288283 0
M  V30 19 H 0.581404 0.896459 2.672445 0
M  V30 20 H -1.589015 0.936250 0.702543 0
M  V30 21 H -1.325776 1.856049 2.124325 0
M  V30 22 H 1.735372 1.196396 0.533586 0
M  V30 23 H 1.959883 -0.492190 1.158795 0
M  V30 24 H 0.826108 -2.353103 -0.062715 0
M  V30 25 H -0.259734 -3.074263 -2.162509 0
M  V30 26 H -1.121380 -1.399463 -3.793919 0
M  V30 27 H -0.861853 0.968387 -3.255815 0
M  V30 28 H 0.195826 1.677013 -1.208139 0
M  V30 END ATOM
M  V30 BEGIN BOND
M  V30 1 1 1 2
M  V30 2 2 2 3
M  V30 3 1 2 4
M  V30 4 1 4 5
M  V30 5 1 5 6
M  V30 6 1 6 7
M  V30 7 1 6 8
M  V30 8 1 8 9
M  V30 9 2 9 10
M  V30 10 1 10 11
M  V30 11 2 11 12
M  V30 12 1 12 13
M  V30 13 2 13 14
M  V30 14 1 14 9
M  V30 15 1 1 15
M  V30 16 1 1 16
M  V30 17 1 5 17
M  V30 18 1 5 18
M  V30 19 1 6 19 CFG=1
M  V30 20 1 7 20
M  V30 21 1 7 21
M  V30 22 1 8 22
M  V30 23 1 8 23
M  V30 24 1 10 24
M  V30 25 1 11 25
M  V30 26 1 12 26
M  V30 27 1 13 27
M  V30 28 1 14 28
M  V30 END BOND
M  V30 END CTAB
M  END
>  <Dataset>  (898) 
OralDrugs

>  <Ligand_Instance>  (898) 
nan

>  <PDB_ID>  (898) 
nan

>  <Standardized_SMILES>  (898) 
NC(=O)OC[C@H](N)Cc1ccccc1

>  <Name>  (898) 
Solriamfetol

>  <Pocket>  (898) 
nan

>  <ATP_Site>  (898) 
nan

>  <Peripheral>  (898) 
nan

>  <Num_H_Atoms_ProtBoundConf>  (898) 
nan

>  <Num_Resolved_Atoms>  (898) 
nan

>  <Num_Not_Resolved_Atoms>  (898) 
nan

$$$$
CHEMBL2105737
     RDKit          3D

  0  0  0  0  0  0  0  0  0  0999 V3000
M  V30 BEGIN CTAB
M  V30 COUNTS 61 64 0 0 0
M  V30 BEGIN ATOM
M  V30 1 C 0.093204 -3.589577 1.147259 0
M  V30 2 C 0.853673 -3.525729 2.397164 0
M  V30 3 C 1.836612 -2.563187 2.477301 0
M  V30 4 C 2.203882 -1.593920 1.445793 0
M  V30 5 O 3.331770 -1.550434 0.901681 0
M  V30 6 N 1.141087 -0.705257 1.127678 0
M  V30 7 C 1.015790 0.390092 0.207582 0
M  V30 8 C 1.365154 1.685591 0.610847 0
M  V30 9 C 1.275896 2.806845 -0.191311 0
M  V30 10 C 0.800950 2.534559 -1.455668 0
M  V30 11 N 0.652595 3.592381 -2.387845 0
M  V30 12 C 1.050508 4.979412 -2.270127 0
M  V30 13 C 0.029958 5.901638 -2.916618 0 CFG=1
M  V30 14 C 0.488365 6.469051 -4.230180 0
M  V30 15 O -1.245421 5.367735 -2.978734 0
M  V30 16 C -1.329401 4.125381 -3.547137 0 CFG=1
M  V30 17 C -2.180980 4.069924 -4.792660 0
M  V30 18 C 0.012882 3.447119 -3.708033 0
M  V30 19 N 0.448013 1.316537 -1.907718 0
M  V30 20 C 0.542123 0.217639 -1.102883 0
M  V30 21 C 2.586616 -2.468702 3.657642 0
M  V30 22 C 2.391418 -3.298685 4.758743 0
M  V30 23 C 1.394601 -4.241703 4.619398 0
M  V30 24 C 0.634605 -4.364920 3.471634 0
M  V30 25 C -0.408247 -5.385775 3.390531 0
M  V30 26 C -1.705518 -5.277776 2.930759 0
M  V30 27 C -2.528808 -6.383498 2.942442 0
M  V30 28 C -2.062113 -7.612342 3.415460 0
M  V30 29 O -3.039321 -8.625530 3.352150 0
M  V30 30 C -3.867727 -8.773572 4.502109 0
M  V30 31 F -4.784233 -9.782098 4.347038 0
M  V30 32 F -3.090479 -8.998943 5.614345 0
M  V30 33 F -4.573795 -7.597457 4.757486 0
M  V30 34 C -0.768405 -7.733461 3.877504 0
M  V30 35 C 0.049726 -6.619813 3.862007 0
M  V30 36 H -0.751623 -2.873338 1.075409 0
M  V30 37 H 0.775175 -3.354323 0.304410 0
M  V30 38 H -0.255626 -4.637932 0.912937 0
M  V30 39 H 0.189892 -0.720477 1.565051 0
M  V30 40 H 1.729578 1.779351 1.638508 0
M  V30 41 H 1.552052 3.781667 0.150894 0
M  V30 42 H 1.303535 5.260173 -1.232455 0
M  V30 43 H 1.984438 5.081276 -2.898007 0
M  V30 44 H -0.054013 6.761013 -2.203904 0
M  V30 45 H 0.524549 7.583206 -4.202992 0
M  V30 46 H -0.203319 6.240289 -5.066900 0
M  V30 47 H 1.492365 6.068433 -4.549392 0
M  V30 48 H -1.865112 3.487022 -2.780061 0
M  V30 49 H -3.048518 3.351477 -4.687849 0
M  V30 50 H -1.659569 3.736124 -5.693901 0
M  V30 51 H -2.678513 5.062024 -4.882936 0
M  V30 52 H -0.165480 2.376489 -3.884270 0
M  V30 53 H 0.636054 3.827791 -4.511378 0
M  V30 54 H 0.267295 -0.773125 -1.435697 0
M  V30 55 H 3.378249 -1.728634 3.783912 0
M  V30 56 H 2.992046 -3.190031 5.647563 0
M  V30 57 H 1.179349 -4.930372 5.439454 0
M  V30 58 H -1.953601 -4.281745 2.591828 0
M  V30 59 H -3.547304 -6.235313 2.564946 0
M  V30 60 H -0.516108 -8.712422 4.214586 0
M  V30 61 H 1.051413 -6.830766 4.250035 0
M  V30 END ATOM
M  V30 BEGIN BOND
M  V30 1 1 1 2
M  V30 2 2 2 3
M  V30 3 1 3 4
M  V30 4 2 4 5
M  V30 5 1 4 6
M  V30 6 1 6 7
M  V30 7 2 7 8
M  V30 8 1 8 9
M  V30 9 2 9 10
M  V30 10 1 10 11
M  V30 11 1 11 12
M  V30 12 1 12 13
M  V30 13 1 13 14
M  V30 14 1 13 15
M  V30 15 1 15 16
M  V30 16 1 16 17
M  V30 17 1 16 18
M  V30 18 1 10 19
M  V30 19 2 19 20
M  V30 20 1 3 21
M  V30 21 2 21 22
M  V30 22 1 22 23
M  V30 23 2 23 24
M  V30 24 1 24 25
M  V30 25 2 25 26
M  V30 26 1 26 27
M  V30 27 2 27 28
M  V30 28 1 28 29
M  V30 29 1 29 30
M  V30 30 1 30 31
M  V30 31 1 30 32
M  V30 32 1 30 33
M  V30 33 1 28 34
M  V30 34 2 34 35
M  V30 35 1 24 2
M  V30 36 1 35 25
M  V30 37 1 20 7
M  V30 38 1 18 11
M  V30 39 1 1 36
M  V30 40 1 1 37
M  V30 41 1 1 38
M  V30 42 1 6 39
M  V30 43 1 8 40
M  V30 44 1 9 41
M  V30 45 1 12 42
M  V30 46 1 12 43
M  V30 47 1 13 44 CFG=1
M  V30 48 1 14 45
M  V30 49 1 14 46
M  V30 50 1 14 47
M  V30 51 1 16 48 CFG=1
M  V30 52 1 17 49
M  V30 53 1 17 50
M  V30 54 1 17 51
M  V30 55 1 18 52
M  V30 56 1 18 53
M  V30 57 1 20 54
M  V30 58 1 21 55
M  V30 59 1 22 56
M  V30 60 1 23 57
M  V30 61 1 26 58
M  V30 62 1 27 59
M  V30 63 1 34 60
M  V30 64 1 35 61
M  V30 END BOND
M  V30 END CTAB
M  END
>  <Dataset>  (899) 
OralDrugs

>  <Ligand_Instance>  (899) 
nan

>  <PDB_ID>  (899) 
nan

>  <Standardized_SMILES>  (899) 
Cc1c(C(=O)Nc2ccc(N3C[C@@H](C)O[C@@H](C)C3)nc2)cccc1-c1ccc(OC(F)(F)F)cc1

>  <Name>  (899) 
Sonidegib

>  <Pocket>  (899) 
nan

>  <ATP_Site>  (899) 
nan

>  <Peripheral>  (899) 
nan

>  <Num_H_Atoms_ProtBoundConf>  (899) 
nan

>  <Num_Resolved_Atoms>  (899) 
nan

>  <Num_Not_Resolved_Atoms>  (899) 
nan

$$$$
CHEMBL1336
     RDKit          3D

  0  0  0  0  0  0  0  0  0  0999 V3000
M  V30 BEGIN CTAB
M  V30 COUNTS 48 50 0 0 0
M  V30 BEGIN ATOM
M  V30 1 C 4.315036 -6.496825 0.376273 0
M  V30 2 N 3.545406 -5.792523 1.385601 0
M  V30 3 C 3.613716 -4.425489 1.728570 0
M  V30 4 O 4.406889 -3.649976 1.142665 0
M  V30 5 C 2.723755 -3.928984 2.799486 0
M  V30 6 C 2.783884 -2.600743 3.139137 0
M  V30 7 C 1.981298 -2.071393 4.129564 0
M  V30 8 O 2.039509 -0.710049 4.481212 0
M  V30 9 C 1.212315 0.219832 3.829007 0
M  V30 10 C 1.835091 0.750714 2.694117 0
M  V30 11 C 1.145363 1.686327 1.938612 0
M  V30 12 C -0.124658 2.053999 2.337364 0
M  V30 13 N -0.787036 3.020192 1.522459 0
M  V30 14 C -1.565415 2.448604 0.459969 0
M  V30 15 O -1.546030 1.188742 0.408140 0
M  V30 16 N -2.312779 3.166246 -0.482364 0
M  V30 17 C -3.053456 2.472183 -1.502619 0
M  V30 18 C -4.357422 2.020659 -1.451777 0
M  V30 19 C -4.864911 1.374471 -2.559907 0
M  V30 20 C -4.106780 1.180223 -3.684555 0
M  V30 21 Cl -4.861053 0.347671 -5.024987 0
M  V30 22 C -2.790705 1.627488 -3.756132 0
M  V30 23 C -2.023209 1.384448 -5.005862 0
M  V30 24 F -1.955549 0.011540 -5.226837 0
M  V30 25 F -2.618016 1.975506 -6.077941 0
M  V30 26 F -0.738093 1.880540 -4.768982 0
M  V30 27 C -2.286352 2.279300 -2.631792 0
M  V30 28 C -0.742888 1.532394 3.456833 0
M  V30 29 C -0.059115 0.600591 4.211454 0
M  V30 30 C 1.101089 -2.904953 4.787949 0
M  V30 31 C 1.082307 -4.230419 4.406365 0
M  V30 32 N 1.868899 -4.719230 3.444749 0
M  V30 33 H 5.210589 -6.988175 0.756417 0
M  V30 34 H 3.653114 -7.217216 -0.156198 0
M  V30 35 H 4.659340 -5.695843 -0.329019 0
M  V30 36 H 2.868745 -6.403970 1.900630 0
M  V30 37 H 3.450274 -1.937130 2.650532 0
M  V30 38 H 2.819228 0.491873 2.350691 0
M  V30 39 H 1.617738 2.116512 1.041463 0
M  V30 40 H -0.807796 4.078780 1.560138 0
M  V30 41 H -2.299646 4.219522 -0.400303 0
M  V30 42 H -4.849512 2.234392 -0.511659 0
M  V30 43 H -5.895710 1.050858 -2.439845 0
M  V30 44 H -1.255274 2.593773 -2.774038 0
M  V30 45 H -1.730388 1.823279 3.760277 0
M  V30 46 H -0.437666 0.125756 5.102247 0
M  V30 47 H 0.486568 -2.465280 5.556692 0
M  V30 48 H 0.393330 -4.885433 4.920931 0
M  V30 END ATOM
M  V30 BEGIN BOND
M  V30 1 1 1 2
M  V30 2 1 2 3
M  V30 3 2 3 4
M  V30 4 1 3 5
M  V30 5 2 5 6
M  V30 6 1 6 7
M  V30 7 1 7 8
M  V30 8 1 8 9
M  V30 9 2 9 10
M  V30 10 1 10 11
M  V30 11 2 11 12
M  V30 12 1 12 13
M  V30 13 1 13 14
M  V30 14 2 14 15
M  V30 15 1 14 16
M  V30 16 1 16 17
M  V30 17 2 17 18
M  V30 18 1 18 19
M  V30 19 2 19 20
M  V30 20 1 20 21
M  V30 21 1 20 22
M  V30 22 1 22 23
M  V30 23 1 23 24
M  V30 24 1 23 25
M  V30 25 1 23 26
M  V30 26 2 22 27
M  V30 27 1 12 28
M  V30 28 2 28 29
M  V30 29 2 7 30
M  V30 30 1 30 31
M  V30 31 2 31 32
M  V30 32 1 32 5
M  V30 33 1 29 9
M  V30 34 1 27 17
M  V30 35 1 1 33
M  V30 36 1 1 34
M  V30 37 1 1 35
M  V30 38 1 2 36
M  V30 39 1 6 37
M  V30 40 1 10 38
M  V30 41 1 11 39
M  V30 42 1 13 40
M  V30 43 1 16 41
M  V30 44 1 18 42
M  V30 45 1 19 43
M  V30 46 1 27 44
M  V30 47 1 28 45
M  V30 48 1 29 46
M  V30 49 1 30 47
M  V30 50 1 31 48
M  V30 END BOND
M  V30 END CTAB
M  END
>  <Dataset>  (900) 
OralDrugs

>  <Ligand_Instance>  (900) 
nan

>  <PDB_ID>  (900) 
nan

>  <Standardized_SMILES>  (900) 
CNC(=O)c1cc(Oc2ccc(NC(=O)Nc3ccc(Cl)c(C(F)(F)F)c3)cc2)ccn1

>  <Name>  (900) 
Sorafenib

>  <Pocket>  (900) 
nan

>  <ATP_Site>  (900) 
nan

>  <Peripheral>  (900) 
nan

>  <Num_H_Atoms_ProtBoundConf>  (900) 
nan

>  <Num_Resolved_Atoms>  (900) 
nan

>  <Num_Not_Resolved_Atoms>  (900) 
nan

$$$$
CHEMBL3039507
     RDKit          3D

  0  0  0  0  0  0  0  0  0  0999 V3000
M  V30 BEGIN CTAB
M  V30 COUNTS 53 55 0 0 0
M  V30 BEGIN ATOM
M  V30 1 C -1.964130 -4.773111 6.525603 0
M  V30 2 C -1.339219 -4.766290 5.150001 0
M  V30 3 O -0.748094 -3.519240 4.846786 0
M  V30 4 C -0.110695 -3.279557 3.629237 0
M  V30 5 C 0.478812 -2.080831 3.293262 0
M  V30 6 C 1.089965 -1.927089 2.063535 0
M  V30 7 C 1.142100 -2.955796 1.115094 0
M  V30 8 C 1.839862 -2.636970 -0.144972 0
M  V30 9 C 1.026936 -1.895146 -1.128352 0
M  V30 10 C 1.274092 -0.540089 -1.248960 0
M  V30 11 C 0.612958 0.308264 -2.115092 0
M  V30 12 C 0.970826 1.749523 -2.176114 0 CFG=2
M  V30 13 O 1.144806 2.236870 -0.925552 0
M  V30 14 C 0.058633 2.496197 -0.158139 0 CFG=2
M  V30 15 S -0.098821 1.477421 1.324746 0
M  V30 16 C 1.221920 1.818328 2.515934 0
M  V30 17 C -1.254098 2.421184 -0.884892 0 CFG=1
M  V30 18 O -2.170417 3.171674 -0.147689 0
M  V30 19 C -1.179801 2.941858 -2.280938 0 CFG=2
M  V30 20 O -2.336149 2.554868 -2.992781 0
M  V30 21 C 0.062866 2.578288 -2.991099 0 CFG=1
M  V30 22 O 0.765879 3.783842 -3.265010 0
M  V30 23 C -0.357220 -0.284412 -2.897142 0
M  V30 24 C -0.668022 -1.626550 -2.841300 0
M  V30 25 C 0.048038 -2.379270 -1.947916 0
M  V30 26 Cl -0.318821 -4.086459 -1.867569 0
M  V30 27 C 0.539802 -4.127447 1.502527 0
M  V30 28 C -0.078607 -4.320286 2.716345 0
M  V30 29 H -1.208059 -4.809213 7.326818 0
M  V30 30 H -2.578758 -3.852528 6.626076 0
M  V30 31 H -2.675022 -5.617995 6.618359 0
M  V30 32 H -2.161863 -4.920760 4.402127 0
M  V30 33 H -0.605689 -5.591688 5.124342 0
M  V30 34 H 0.423972 -1.309665 4.039276 0
M  V30 35 H 1.528010 -0.981397 1.861585 0
M  V30 36 H 2.182217 -3.627041 -0.563572 0
M  V30 37 H 2.767159 -2.072562 0.130659 0
M  V30 38 H 2.049245 -0.067271 -0.622924 0
M  V30 39 H 1.971768 1.763982 -2.692031 0
M  V30 40 H 0.144899 3.553661 0.206710 0
M  V30 41 H 1.133348 1.053725 3.299827 0
M  V30 42 H 1.058140 2.799890 2.972244 0
M  V30 43 H 2.194430 1.683527 2.020526 0
M  V30 44 H -1.599368 1.377683 -0.882377 0
M  V30 45 H -2.515437 2.705151 0.653930 0
M  V30 46 H -1.284202 4.069137 -2.225857 0
M  V30 47 H -2.744691 1.735453 -2.573760 0
M  V30 48 H -0.116979 2.162934 -4.016151 0
M  V30 49 H 0.258470 4.571528 -2.979782 0
M  V30 50 H -0.904982 0.318439 -3.593798 0
M  V30 51 H -1.429700 -2.075860 -3.459206 0
M  V30 52 H 0.570313 -4.928808 0.808709 0
M  V30 53 H -0.524557 -5.294082 2.916319 0
M  V30 END ATOM
M  V30 BEGIN BOND
M  V30 1 1 1 2
M  V30 2 1 2 3
M  V30 3 1 3 4
M  V30 4 2 4 5
M  V30 5 1 5 6
M  V30 6 2 6 7
M  V30 7 1 7 8
M  V30 8 1 8 9
M  V30 9 2 9 10
M  V30 10 1 10 11
M  V30 11 1 11 12
M  V30 12 1 12 13
M  V30 13 1 13 14
M  V30 14 1 14 15
M  V30 15 1 15 16
M  V30 16 1 14 17
M  V30 17 1 17 18
M  V30 18 1 17 19
M  V30 19 1 19 20
M  V30 20 1 19 21
M  V30 21 1 21 22
M  V30 22 2 11 23
M  V30 23 1 23 24
M  V30 24 2 24 25
M  V30 25 1 25 26
M  V30 26 1 7 27
M  V30 27 2 27 28
M  V30 28 1 28 4
M  V30 29 1 25 9
M  V30 30 1 21 12
M  V30 31 1 1 29
M  V30 32 1 1 30
M  V30 33 1 1 31
M  V30 34 1 2 32
M  V30 35 1 2 33
M  V30 36 1 5 34
M  V30 37 1 6 35
M  V30 38 1 8 36
M  V30 39 1 8 37
M  V30 40 1 10 38
M  V30 41 1 12 39 CFG=3
M  V30 42 1 14 40 CFG=1
M  V30 43 1 16 41
M  V30 44 1 16 42
M  V30 45 1 16 43
M  V30 46 1 17 44 CFG=3
M  V30 47 1 18 45
M  V30 48 1 19 46 CFG=1
M  V30 49 1 20 47
M  V30 50 1 21 48 CFG=3
M  V30 51 1 22 49
M  V30 52 1 23 50
M  V30 53 1 24 51
M  V30 54 1 27 52
M  V30 55 1 28 53
M  V30 END BOND
M  V30 END CTAB
M  END
>  <Dataset>  (901) 
OralDrugs

>  <Ligand_Instance>  (901) 
nan

>  <PDB_ID>  (901) 
nan

>  <Standardized_SMILES>  (901) 
CCOc1ccc(Cc2cc([C@@H]3O[C@H](SC)[C@@H](O)[C@H](O)[C@H]3O)ccc2Cl)cc1

>  <Name>  (901) 
Sotagliflozin

>  <Pocket>  (901) 
nan

>  <ATP_Site>  (901) 
nan

>  <Peripheral>  (901) 
nan

>  <Num_H_Atoms_ProtBoundConf>  (901) 
nan

>  <Num_Resolved_Atoms>  (901) 
nan

>  <Num_Not_Resolved_Atoms>  (901) 
nan

$$$$
CHEMBL471
     RDKit          3D

  0  0  0  0  0  0  0  0  0  0999 V3000
M  V30 BEGIN CTAB
M  V30 COUNTS 38 38 0 0 0
M  V30 BEGIN ATOM
M  V30 1 C -2.814114 -3.362189 -0.169343 0
M  V30 2 C -1.884003 -3.382790 1.017703 0
M  V30 3 C -1.510324 -4.822630 1.291285 0
M  V30 4 N -0.660744 -2.646002 0.736443 0
M  V30 5 C 0.175912 -2.717841 1.932641 0
M  V30 6 C 1.440207 -1.954399 1.665707 0
M  V30 7 O 2.082757 -2.549459 0.563848 0
M  V30 8 C 1.141909 -0.538522 1.339773 0
M  V30 9 C 0.620644 -0.092239 0.152866 0
M  V30 10 C 0.358346 1.237931 -0.105256 0
M  V30 11 C 0.616905 2.201018 0.846671 0
M  V30 12 N 0.410674 3.603418 0.753171 0
M  V30 13 S 0.908587 4.401615 -0.687988 0
M  V30 14 C 2.684278 4.182937 -0.845790 0
M  V30 15 O 0.617841 5.875594 -0.629966 0
M  V30 16 O 0.267734 3.759974 -1.862035 0
M  V30 17 C 1.147931 1.767637 2.062239 0
M  V30 18 C 1.402256 0.433056 2.298797 0
M  V30 19 H -2.660889 -2.482411 -0.826090 0
M  V30 20 H -3.872091 -3.322758 0.162799 0
M  V30 21 H -2.657291 -4.263481 -0.765319 0
M  V30 22 H -2.399734 -2.922240 1.860408 0
M  V30 23 H -0.644954 -5.071201 0.651029 0
M  V30 24 H -2.353667 -5.468941 0.945620 0
M  V30 25 H -1.347051 -4.926828 2.365934 0
M  V30 26 H -0.161458 -3.061325 -0.084662 0
M  V30 27 H 0.407716 -3.789960 2.086505 0
M  V30 28 H -0.374139 -2.313842 2.799832 0
M  V30 29 H 2.104010 -2.004492 2.561885 0
M  V30 30 H 1.858638 -3.514203 0.609699 0
M  V30 31 H 0.406364 -0.799561 -0.610336 0
M  V30 32 H -0.045462 1.603969 -1.018143 0
M  V30 33 H -0.025035 4.164735 1.512425 0
M  V30 34 H 3.127165 4.468872 0.109975 0
M  V30 35 H 3.044443 4.776297 -1.722648 0
M  V30 36 H 2.865380 3.122674 -1.036655 0
M  V30 37 H 1.379712 2.457329 2.862224 0
M  V30 38 H 1.816267 0.129126 3.256934 0
M  V30 END ATOM
M  V30 BEGIN BOND
M  V30 1 1 1 2
M  V30 2 1 2 3
M  V30 3 1 2 4
M  V30 4 1 4 5
M  V30 5 1 5 6
M  V30 6 1 6 7
M  V30 7 1 6 8
M  V30 8 2 8 9
M  V30 9 1 9 10
M  V30 10 2 10 11
M  V30 11 1 11 12
M  V30 12 1 12 13
M  V30 13 1 13 14
M  V30 14 2 13 15
M  V30 15 2 13 16
M  V30 16 1 11 17
M  V30 17 2 17 18
M  V30 18 1 18 8
M  V30 19 1 1 19
M  V30 20 1 1 20
M  V30 21 1 1 21
M  V30 22 1 2 22
M  V30 23 1 3 23
M  V30 24 1 3 24
M  V30 25 1 3 25
M  V30 26 1 4 26
M  V30 27 1 5 27
M  V30 28 1 5 28
M  V30 29 1 6 29
M  V30 30 1 7 30
M  V30 31 1 9 31
M  V30 32 1 10 32
M  V30 33 1 12 33
M  V30 34 1 14 34
M  V30 35 1 14 35
M  V30 36 1 14 36
M  V30 37 1 17 37
M  V30 38 1 18 38
M  V30 END BOND
M  V30 END CTAB
M  END
>  <Dataset>  (902) 
OralDrugs

>  <Ligand_Instance>  (902) 
nan

>  <PDB_ID>  (902) 
nan

>  <Standardized_SMILES>  (902) 
CC(C)NCC(O)c1ccc(NS(C)(=O)=O)cc1

>  <Name>  (902) 
Sotalol

>  <Pocket>  (902) 
nan

>  <ATP_Site>  (902) 
nan

>  <Peripheral>  (902) 
nan

>  <Num_H_Atoms_ProtBoundConf>  (902) 
nan

>  <Num_Resolved_Atoms>  (902) 
nan

>  <Num_Not_Resolved_Atoms>  (902) 
nan

$$$$
CHEMBL4535757
     RDKit          3D

  0  0  0  0  0  0  0  0  0  0999 V3000
M  V30 BEGIN CTAB
M  V30 COUNTS 71 75 0 0 0
M  V30 BEGIN ATOM
M  V30 1 C -1.936401 -5.031527 4.642801 0
M  V30 2 C -0.803922 -4.428796 4.374159 0
M  V30 3 C -0.574099 -3.072147 4.842215 0
M  V30 4 O -1.462784 -2.479513 5.504993 0
M  V30 5 N 0.618537 -2.337007 4.600193 0
M  V30 6 C 0.742166 -0.993352 5.110653 0
M  V30 7 C 1.213542 -0.032845 4.029103 0
M  V30 8 N 1.619210 -0.756527 2.836901 0
M  V30 9 C 1.308561 -0.540236 1.466311 0
M  V30 10 N 2.421038 -0.336491 0.711699 0
M  V30 11 C 2.309832 -0.117248 -0.621586 0
M  V30 12 O 3.345184 0.069838 -1.312768 0
M  V30 13 N 1.116653 -0.090493 -1.253143 0
M  V30 14 C 0.952153 0.134508 -2.643607 0
M  V30 15 C 0.732023 -0.994458 -3.435326 0
M  V30 16 C 0.657629 -2.390817 -2.942182 0
M  V30 17 C 0.559511 -0.869901 -4.813495 0
M  V30 18 C 0.619700 0.423468 -5.338304 0
M  V30 19 N 0.834545 1.505633 -4.551377 0
M  V30 20 C 1.002781 1.393748 -3.213727 0
M  V30 21 C 1.235291 2.583576 -2.366178 0
M  V30 22 C -0.098402 3.111359 -1.914835 0
M  V30 23 C 1.839588 3.643161 -3.284590 0
M  V30 24 C -0.009578 -0.291087 -0.522363 0
M  V30 25 N -1.261413 -0.287308 -1.036306 0
M  V30 26 C -2.315596 -0.494790 -0.229098 0
M  V30 27 C -3.611399 -0.466457 -0.906524 0
M  V30 28 C -4.174663 -1.633252 -1.434800 0
M  V30 29 O -3.447012 -2.808385 -1.281734 0
M  V30 30 C -5.394411 -1.525456 -2.058674 0
M  V30 31 C -6.048864 -0.316237 -2.166257 0
M  V30 32 C -5.491871 0.842076 -1.643016 0
M  V30 33 C -4.259894 0.766618 -1.006144 0
M  V30 34 F -3.698930 1.893068 -0.486748 0
M  V30 35 C -2.256086 -0.721827 1.129920 0
M  V30 36 F -3.364823 -0.920088 1.865833 0
M  V30 37 C -0.982525 -0.730741 1.681646 0
M  V30 38 C 0.082985 -0.515809 0.835278 0
M  V30 39 C 2.497621 -1.880636 3.155161 0 CFG=1
M  V30 40 C 3.656820 -1.440491 4.003493 0
M  V30 41 C 1.688516 -2.919902 3.855772 0
M  V30 42 H -2.695681 -4.486194 5.224555 0
M  V30 43 H -2.172532 -6.036160 4.328812 0
M  V30 44 H -0.076365 -4.985388 3.802849 0
M  V30 45 H -0.248876 -0.656646 5.482504 0
M  V30 46 H 1.399995 -0.989596 6.002849 0
M  V30 47 H 2.122944 0.459138 4.430379 0
M  V30 48 H 0.468297 0.749301 3.832078 0
M  V30 49 H -0.350202 -2.793853 -3.249523 0
M  V30 50 H 1.381070 -3.030272 -3.482836 0
M  V30 51 H 0.695827 -2.495884 -1.857810 0
M  V30 52 H 0.385561 -1.716031 -5.467850 0
M  V30 53 H 0.485438 0.531736 -6.417927 0
M  V30 54 H 1.941010 2.420734 -1.535144 0
M  V30 55 H -0.084340 3.425822 -0.850276 0
M  V30 56 H -0.458137 3.927113 -2.582235 0
M  V30 57 H -0.853945 2.304505 -2.002775 0
M  V30 58 H 2.280802 4.484096 -2.694887 0
M  V30 59 H 2.640583 3.238639 -3.918501 0
M  V30 60 H 1.065168 4.034889 -3.993556 0
M  V30 61 H -3.079936 -3.153995 -0.419594 0
M  V30 62 H -5.821242 -2.443730 -2.465604 0
M  V30 63 H -7.014738 -0.259855 -2.665980 0
M  V30 64 H -5.960836 1.820099 -1.697839 0
M  V30 65 H -0.882654 -0.902605 2.730062 0
M  V30 66 H 2.912261 -2.331370 2.223345 0
M  V30 67 H 3.499789 -1.678610 5.093055 0
M  V30 68 H 4.554297 -2.010742 3.697176 0
M  V30 69 H 3.914819 -0.370373 3.855368 0
M  V30 70 H 1.332706 -3.685058 3.122849 0
M  V30 71 H 2.394976 -3.442367 4.562709 0
M  V30 END ATOM
M  V30 BEGIN BOND
M  V30 1 2 1 2
M  V30 2 1 2 3
M  V30 3 2 3 4
M  V30 4 1 3 5
M  V30 5 1 5 6
M  V30 6 1 6 7
M  V30 7 1 7 8
M  V30 8 1 8 9
M  V30 9 2 9 10
M  V30 10 1 10 11
M  V30 11 2 11 12
M  V30 12 1 11 13
M  V30 13 1 13 14
M  V30 14 2 14 15
M  V30 15 1 15 16
M  V30 16 1 15 17
M  V30 17 2 17 18
M  V30 18 1 18 19
M  V30 19 2 19 20
M  V30 20 1 20 21
M  V30 21 1 21 22
M  V30 22 1 21 23
M  V30 23 1 13 24
M  V30 24 2 24 25
M  V30 25 1 25 26
M  V30 26 1 26 27
M  V30 27 2 27 28
M  V30 28 1 28 29
M  V30 29 1 28 30
M  V30 30 2 30 31
M  V30 31 1 31 32
M  V30 32 2 32 33
M  V30 33 1 33 34
M  V30 34 2 26 35
M  V30 35 1 35 36
M  V30 36 1 35 37
M  V30 37 2 37 38
M  V30 38 1 8 39
M  V30 39 1 39 40
M  V30 40 1 39 41
M  V30 41 1 41 5
M  V30 42 1 38 9
M  V30 43 1 20 14
M  V30 44 1 38 24
M  V30 45 1 33 27
M  V30 46 1 1 42
M  V30 47 1 1 43
M  V30 48 1 2 44
M  V30 49 1 6 45
M  V30 50 1 6 46
M  V30 51 1 7 47
M  V30 52 1 7 48
M  V30 53 1 16 49
M  V30 54 1 16 50
M  V30 55 1 16 51
M  V30 56 1 17 52
M  V30 57 1 18 53
M  V30 58 1 21 54
M  V30 59 1 22 55
M  V30 60 1 22 56
M  V30 61 1 22 57
M  V30 62 1 23 58
M  V30 63 1 23 59
M  V30 64 1 23 60
M  V30 65 1 29 61
M  V30 66 1 30 62
M  V30 67 1 31 63
M  V30 68 1 32 64
M  V30 69 1 37 65
M  V30 70 1 39 66 CFG=3
M  V30 71 1 40 67
M  V30 72 1 40 68
M  V30 73 1 40 69
M  V30 74 1 41 70
M  V30 75 1 41 71
M  V30 END BOND
M  V30 END CTAB
M  END
>  <Dataset>  (903) 
OralDrugs

>  <Ligand_Instance>  (903) 
nan

>  <PDB_ID>  (903) 
nan

>  <Standardized_SMILES>  (903) 
C=CC(=O)N1CCN(c2nc(=O)n(-c3c(C)ccnc3C(C)C)c3nc(-c4c(O)cccc4F)c(F)cc23)[C@@H](C)C1

>  <Name>  (903) 
Sotorasib

>  <Pocket>  (903) 
nan

>  <ATP_Site>  (903) 
nan

>  <Peripheral>  (903) 
nan

>  <Num_H_Atoms_ProtBoundConf>  (903) 
nan

>  <Num_Resolved_Atoms>  (903) 
nan

>  <Num_Not_Resolved_Atoms>  (903) 
nan

$$$$
CHEMBL850
     RDKit          3D

  0  0  0  0  0  0  0  0  0  0999 V3000
M  V30 BEGIN CTAB
M  V30 COUNTS 50 53 0 0 0
M  V30 BEGIN ATOM
M  V30 1 C -4.345758 -3.000637 -0.451019 0
M  V30 2 C -2.892624 -2.791940 -0.068863 0 CFG=2
M  V30 3 C -2.329240 -1.629213 -0.820628 0
M  V30 4 N -0.880762 -1.695408 -0.767120 0
M  V30 5 C -0.089265 -0.576032 -0.364776 0
M  V30 6 C 0.323125 0.296265 -1.342509 0
M  V30 7 F -0.016778 0.088748 -2.637145 0
M  V30 8 C 1.089554 1.393443 -1.007715 0
M  V30 9 N 1.505120 2.282247 -2.033010 0
M  V30 10 C 1.428952 1.592671 0.317657 0
M  V30 11 C 2.203175 2.716849 0.590639 0
M  V30 12 O 2.573318 3.506565 -0.314803 0
M  V30 13 C 2.547055 2.924714 1.908734 0
M  V30 14 C 3.356257 4.080162 2.274202 0
M  V30 15 O 3.740579 4.887101 1.387645 0
M  V30 16 O 3.711587 4.305181 3.594142 0
M  V30 17 C 2.127583 2.042614 2.882021 0
M  V30 18 N 1.381191 0.957723 2.623479 0
M  V30 19 C 0.937830 0.027318 3.644438 0
M  V30 20 C 1.770325 -1.140990 3.971752 0
M  V30 21 C 1.668829 -0.015408 4.963977 0
M  V30 22 C 1.035598 0.739086 1.338774 0
M  V30 23 C 0.271918 -0.339963 0.946897 0
M  V30 24 F -0.157012 -1.223018 1.863974 0
M  V30 25 C -0.157339 -2.888303 -1.114891 0
M  V30 26 C -1.088920 -4.062120 -1.084546 0 CFG=2
M  V30 27 C -1.588879 -4.435134 -2.466810 0
M  V30 28 N -2.125090 -3.988500 -0.102431 0
M  V30 29 H -4.616862 -4.031671 -0.129316 0
M  V30 30 H -4.958525 -2.233823 0.091478 0
M  V30 31 H -4.546824 -2.808840 -1.523870 0
M  V30 32 H -2.915356 -2.473194 1.014684 0
M  V30 33 H -2.639409 -0.669287 -0.329656 0
M  V30 34 H -2.701593 -1.602577 -1.863491 0
M  V30 35 H 2.408729 2.124356 -2.561427 0
M  V30 36 H 1.144035 3.167465 -2.490765 0
M  V30 37 H 4.051323 5.191946 3.942888 0
M  V30 38 H 2.425628 2.253340 3.898958 0
M  V30 39 H -0.181698 0.018734 3.793943 0
M  V30 40 H 1.300008 -2.112376 4.169051 0
M  V30 41 H 2.739992 -1.188767 3.418482 0
M  V30 42 H 1.125716 -0.263766 5.891376 0
M  V30 43 H 2.531216 0.643667 5.148085 0
M  V30 44 H 0.213930 -2.767449 -2.162964 0
M  V30 45 H 0.753077 -3.036281 -0.504987 0
M  V30 46 H -0.447870 -4.940584 -0.777789 0
M  V30 47 H -1.891048 -5.500661 -2.422970 0
M  V30 48 H -0.712793 -4.351339 -3.147102 0
M  V30 49 H -2.367531 -3.766162 -2.852202 0
M  V30 50 H -1.812955 -4.348192 0.834792 0
M  V30 END ATOM
M  V30 BEGIN BOND
M  V30 1 1 1 2
M  V30 2 1 2 3
M  V30 3 1 3 4
M  V30 4 1 4 5
M  V30 5 2 5 6
M  V30 6 1 6 7
M  V30 7 1 6 8
M  V30 8 1 8 9
M  V30 9 2 8 10
M  V30 10 1 10 11
M  V30 11 2 11 12
M  V30 12 1 11 13
M  V30 13 1 13 14
M  V30 14 2 14 15
M  V30 15 1 14 16
M  V30 16 2 13 17
M  V30 17 1 17 18
M  V30 18 1 18 19
M  V30 19 1 19 20
M  V30 20 1 20 21
M  V30 21 1 18 22
M  V30 22 2 22 23
M  V30 23 1 23 24
M  V30 24 1 4 25
M  V30 25 1 25 26
M  V30 26 1 26 27
M  V30 27 1 26 28
M  V30 28 1 28 2
M  V30 29 1 23 5
M  V30 30 1 22 10
M  V30 31 1 21 19
M  V30 32 1 1 29
M  V30 33 1 1 30
M  V30 34 1 1 31
M  V30 35 1 2 32 CFG=1
M  V30 36 1 3 33
M  V30 37 1 3 34
M  V30 38 1 9 35
M  V30 39 1 9 36
M  V30 40 1 16 37
M  V30 41 1 17 38
M  V30 42 1 19 39
M  V30 43 1 20 40
M  V30 44 1 20 41
M  V30 45 1 21 42
M  V30 46 1 21 43
M  V30 47 1 25 44
M  V30 48 1 25 45
M  V30 49 1 26 46 CFG=1
M  V30 50 1 27 47
M  V30 51 1 27 48
M  V30 52 1 27 49
M  V30 53 1 28 50
M  V30 END BOND
M  V30 END CTAB
M  END
>  <Dataset>  (904) 
OralDrugs

>  <Ligand_Instance>  (904) 
nan

>  <PDB_ID>  (904) 
nan

>  <Standardized_SMILES>  (904) 
C[C@@H]1CN(c2c(F)c(N)c3c(=O)c(C(=O)O)cn(C4CC4)c3c2F)C[C@H](C)N1

>  <Name>  (904) 
Sparfloxacin

>  <Pocket>  (904) 
nan

>  <ATP_Site>  (904) 
nan

>  <Peripheral>  (904) 
nan

>  <Num_H_Atoms_ProtBoundConf>  (904) 
nan

>  <Num_Resolved_Atoms>  (904) 
nan

>  <Num_Not_Resolved_Atoms>  (904) 
nan

$$$$
CHEMBL539423
     RDKit          3D

  0  0  0  0  0  0  0  0  0  0999 V3000
M  V30 BEGIN CTAB
M  V30 COUNTS 82 86 0 0 0
M  V30 BEGIN ATOM
M  V30 1 C 4.332010 -3.760798 -4.291476 0
M  V30 2 C 3.697668 -4.061697 -2.962062 0
M  V30 3 C 2.170682 -4.222074 -3.115954 0
M  V30 4 C 1.658547 -4.501391 -1.749638 0
M  V30 5 C 0.208114 -4.737726 -1.641301 0
M  V30 6 N -0.208001 -5.938202 -1.286314 0
M  V30 7 C -1.623311 -5.971794 -1.236372 0
M  V30 8 C -2.181805 -6.414507 0.092820 0
M  V30 9 C -3.589236 -6.880987 -0.241676 0
M  V30 10 C -3.611651 -7.139707 -1.712284 0
M  V30 11 C -2.224601 -6.945697 -2.230049 0
M  V30 12 C -2.067719 -4.612756 -1.597153 0
M  V30 13 O -3.276955 -4.229487 -1.656359 0
M  V30 14 N -0.857733 -3.870769 -1.851554 0
M  V30 15 C -0.952212 -2.495972 -2.241110 0
M  V30 16 C -0.901612 -1.514538 -1.148578 0
M  V30 17 C 0.276930 -0.883757 -0.748830 0
M  V30 18 C 0.248408 0.055855 0.291781 0
M  V30 19 C -0.936463 0.397017 0.963425 0
M  V30 20 C -0.547613 1.383234 1.948914 0
M  V30 21 C -0.403169 0.753099 3.186905 0
M  V30 22 C -0.035901 1.476605 4.314665 0
M  V30 23 C 0.198323 2.831958 4.258849 0
M  V30 24 C 0.050579 3.440422 3.028692 0
M  V30 25 C -0.312102 2.730796 1.910387 0
M  V30 26 S -0.504072 3.454848 0.354013 0
M  V30 27 O -2.001956 3.569880 0.082228 0
M  V30 28 O 0.103281 2.716435 -0.768721 0
M  V30 29 N 0.024403 5.125138 0.432884 0
M  V30 30 C 1.382845 5.394988 0.766852 0
M  V30 31 N 2.343909 4.492516 1.039825 0
M  V30 32 O 3.468652 5.128817 1.290225 0
M  V30 33 C 3.291872 6.429941 1.193677 0
M  V30 34 C 4.223979 7.571172 1.377207 0
M  V30 35 C 1.968246 6.632447 0.860719 0
M  V30 36 C 1.297901 7.946812 0.644932 0
M  V30 37 C -2.119867 -0.238549 0.562015 0
M  V30 38 C -3.250023 0.187576 1.382947 0
M  V30 39 O -3.807099 1.367823 1.053460 0
M  V30 40 C -4.448784 1.479384 -0.124251 0
M  V30 41 C -3.737938 1.292794 -1.406945 0
M  V30 42 C -2.041829 -1.155217 -0.466974 0
M  V30 43 H 3.927283 -2.822262 -4.747583 0
M  V30 44 H 4.082882 -4.582937 -4.995523 0
M  V30 45 H 5.418948 -3.601454 -4.220435 0
M  V30 46 H 4.140940 -5.020485 -2.605787 0
M  V30 47 H 3.974109 -3.281467 -2.256619 0
M  V30 48 H 1.850791 -3.296542 -3.593610 0
M  V30 49 H 2.000684 -5.024690 -3.864449 0
M  V30 50 H 1.977019 -3.631414 -1.111949 0
M  V30 51 H 2.255546 -5.352170 -1.357407 0
M  V30 52 H -1.604815 -7.195104 0.595584 0
M  V30 53 H -2.296465 -5.589270 0.809467 0
M  V30 54 H -4.361434 -6.125373 -0.015862 0
M  V30 55 H -3.869119 -7.812726 0.293200 0
M  V30 56 H -3.967682 -8.169043 -1.967548 0
M  V30 57 H -4.267972 -6.398306 -2.257289 0
M  V30 58 H -1.594330 -7.858607 -2.201533 0
M  V30 59 H -2.172796 -6.460946 -3.228527 0
M  V30 60 H -1.904875 -2.276152 -2.792236 0
M  V30 61 H -0.076180 -2.274971 -2.902696 0
M  V30 62 H 1.140402 -1.205091 -1.317301 0
M  V30 63 H 1.263935 0.409297 0.429435 0
M  V30 64 H -0.542602 -0.295235 3.443829 0
M  V30 65 H 0.097822 1.051178 5.310179 0
M  V30 66 H 0.484257 3.420481 5.105746 0
M  V30 67 H 0.215156 4.502525 2.880335 0
M  V30 68 H -0.605427 5.916220 0.250130 0
M  V30 69 H 4.206065 7.939509 2.410198 0
M  V30 70 H 5.241392 7.192332 1.084083 0
M  V30 71 H 4.003569 8.372264 0.630378 0
M  V30 72 H 0.224024 7.799303 0.405353 0
M  V30 73 H 1.741881 8.541759 -0.169295 0
M  V30 74 H 1.343394 8.541549 1.596763 0
M  V30 75 H -2.947028 0.269659 2.470953 0
M  V30 76 H -4.032586 -0.653700 1.417253 0
M  V30 77 H -5.377149 0.826333 -0.120895 0
M  V30 78 H -4.911323 2.530190 -0.123183 0
M  V30 79 H -2.648300 1.406249 -1.363835 0
M  V30 80 H -3.952564 0.320984 -1.923153 0
M  V30 81 H -4.077360 2.074869 -2.159144 0
M  V30 82 H -2.992842 -1.581545 -0.700620 0
M  V30 END ATOM
M  V30 BEGIN BOND
M  V30 1 1 1 2
M  V30 2 1 2 3
M  V30 3 1 3 4
M  V30 4 1 4 5
M  V30 5 2 5 6
M  V30 6 1 6 7
M  V30 7 1 7 8
M  V30 8 1 8 9
M  V30 9 1 9 10
M  V30 10 1 10 11
M  V30 11 1 7 12
M  V30 12 2 12 13
M  V30 13 1 12 14
M  V30 14 1 14 15
M  V30 15 1 15 16
M  V30 16 2 16 17
M  V30 17 1 17 18
M  V30 18 2 18 19
M  V30 19 1 19 20
M  V30 20 2 20 21
M  V30 21 1 21 22
M  V30 22 2 22 23
M  V30 23 1 23 24
M  V30 24 2 24 25
M  V30 25 1 25 26
M  V30 26 2 26 27
M  V30 27 2 26 28
M  V30 28 1 26 29
M  V30 29 1 29 30
M  V30 30 2 30 31
M  V30 31 1 31 32
M  V30 32 1 32 33
M  V30 33 1 33 34
M  V30 34 2 33 35
M  V30 35 1 35 36
M  V30 36 1 19 37
M  V30 37 1 37 38
M  V30 38 1 38 39
M  V30 39 1 39 40
M  V30 40 1 40 41
M  V30 41 2 37 42
M  V30 42 1 14 5
M  V30 43 1 42 16
M  V30 44 1 11 7
M  V30 45 1 25 20
M  V30 46 1 35 30
M  V30 47 1 1 43
M  V30 48 1 1 44
M  V30 49 1 1 45
M  V30 50 1 2 46
M  V30 51 1 2 47
M  V30 52 1 3 48
M  V30 53 1 3 49
M  V30 54 1 4 50
M  V30 55 1 4 51
M  V30 56 1 8 52
M  V30 57 1 8 53
M  V30 58 1 9 54
M  V30 59 1 9 55
M  V30 60 1 10 56
M  V30 61 1 10 57
M  V30 62 1 11 58
M  V30 63 1 11 59
M  V30 64 1 15 60
M  V30 65 1 15 61
M  V30 66 1 17 62
M  V30 67 1 18 63
M  V30 68 1 21 64
M  V30 69 1 22 65
M  V30 70 1 23 66
M  V30 71 1 24 67
M  V30 72 1 29 68
M  V30 73 1 34 69
M  V30 74 1 34 70
M  V30 75 1 34 71
M  V30 76 1 36 72
M  V30 77 1 36 73
M  V30 78 1 36 74
M  V30 79 1 38 75
M  V30 80 1 38 76
M  V30 81 1 40 77
M  V30 82 1 40 78
M  V30 83 1 41 79
M  V30 84 1 41 80
M  V30 85 1 41 81
M  V30 86 1 42 82
M  V30 END BOND
M  V30 END CTAB
M  END
>  <Dataset>  (905) 
OralDrugs

>  <Ligand_Instance>  (905) 
nan

>  <PDB_ID>  (905) 
nan

>  <Standardized_SMILES>  (905) 
CCCCC1=NC2(CCCC2)C(=O)N1Cc1ccc(-c2ccccc2S(=O)(=O)Nc2noc(C)c2C)c(COCC)c1

>  <Name>  (905) 
Sparsentan

>  <Pocket>  (905) 
nan

>  <ATP_Site>  (905) 
nan

>  <Peripheral>  (905) 
nan

>  <Num_H_Atoms_ProtBoundConf>  (905) 
nan

>  <Num_Resolved_Atoms>  (905) 
nan

>  <Num_Not_Resolved_Atoms>  (905) 
nan

$$$$
CHEMBL1393
     RDKit          3D

  0  0  0  0  0  0  0  0  0  0999 V3000
M  V30 BEGIN CTAB
M  V30 COUNTS 61 65 0 0 0
M  V30 BEGIN ATOM
M  V30 1 C 2.039046 -4.447811 2.237330 0
M  V30 2 C 1.586932 -3.599385 1.094042 0
M  V30 3 O 0.691925 -4.319182 0.617124 0
M  V30 4 S 2.422439 -2.061343 0.893939 0
M  V30 5 C 1.887614 -1.024948 -0.453781 0 CFG=2
M  V30 6 C 2.812654 0.213539 -0.401412 0
M  V30 7 C 2.490498 1.031923 0.794182 0
M  V30 8 C 3.489213 1.824136 1.221217 0
M  V30 9 C 3.343762 2.690649 2.378229 0
M  V30 10 O 4.049053 3.700362 2.613384 0
M  V30 11 C 2.272017 2.338637 3.347142 0
M  V30 12 C 1.581667 1.060221 3.007152 0
M  V30 13 C 1.202786 1.038700 1.520775 0 CFG=1
M  V30 14 C 0.544524 2.354207 1.247177 0
M  V30 15 C 0.382737 -0.161025 1.196608 0 CFG=1
M  V30 16 C -1.034314 -0.052931 1.687979 0
M  V30 17 C -1.892245 -1.168489 1.131660 0
M  V30 18 C -1.931601 -1.040258 -0.324775 0 CFG=1
M  V30 19 C -2.566643 0.273273 -0.706396 0
M  V30 20 C -0.550945 -1.214505 -0.898420 0 CFG=1
M  V30 21 C -0.849873 -0.900932 -2.337807 0
M  V30 22 C -2.128696 -1.713886 -2.540284 0
M  V30 23 C -2.628529 -2.076871 -1.131507 0 CFG=1
M  V30 24 C -2.243056 -3.487934 -0.878433 0
M  V30 25 C -3.522148 -4.254695 -1.156637 0
M  V30 26 C -4.584975 -3.242283 -0.827768 0
M  V30 27 O -5.770426 -3.293593 -0.414007 0
M  V30 28 O -4.035136 -1.990780 -1.068565 0
M  V30 29 C 0.498647 -0.420479 -0.270083 0 CFG=2
M  V30 30 H 2.873109 -3.992588 2.814746 0
M  V30 31 H 1.216829 -4.624139 2.986600 0
M  V30 32 H 2.454052 -5.432740 1.895217 0
M  V30 33 H 1.999918 -1.442468 -1.461600 0
M  V30 34 H 2.776147 0.790032 -1.331544 0
M  V30 35 H 3.836974 -0.185238 -0.255800 0
M  V30 36 H 4.462400 1.845153 0.705093 0
M  V30 37 H 2.812514 2.191229 4.327873 0
M  V30 38 H 1.620572 3.209348 3.464749 0
M  V30 39 H 0.637742 1.016576 3.611540 0
M  V30 40 H 2.239952 0.206072 3.229199 0
M  V30 41 H -0.046603 2.663769 2.150281 0
M  V30 42 H 1.323866 3.142290 1.042282 0
M  V30 43 H -0.106335 2.381832 0.360404 0
M  V30 44 H 0.829046 -1.012199 1.755823 0
M  V30 45 H -1.476326 0.954005 1.545763 0
M  V30 46 H -1.008655 -0.204337 2.794116 0
M  V30 47 H -1.509765 -2.107552 1.538760 0
M  V30 48 H -2.920158 -1.016359 1.549624 0
M  V30 49 H -3.533958 0.305154 -0.124022 0
M  V30 50 H -2.853843 0.350841 -1.761874 0
M  V30 51 H -2.022414 1.163999 -0.410613 0
M  V30 52 H -0.312760 -2.291437 -0.876706 0
M  V30 53 H -0.976753 0.164716 -2.541957 0
M  V30 54 H -0.039299 -1.272539 -3.004773 0
M  V30 55 H -2.876803 -1.169357 -3.126038 0
M  V30 56 H -1.850024 -2.634892 -3.108186 0
M  V30 57 H -1.493433 -3.875378 -1.613485 0
M  V30 58 H -1.950983 -3.719954 0.155473 0
M  V30 59 H -3.592752 -5.134179 -0.470156 0
M  V30 60 H -3.622843 -4.568641 -2.204308 0
M  V30 61 H 0.525846 0.584051 -0.779113 0
M  V30 END ATOM
M  V30 BEGIN BOND
M  V30 1 1 1 2
M  V30 2 2 2 3
M  V30 3 1 2 4
M  V30 4 1 4 5
M  V30 5 1 5 6
M  V30 6 1 6 7
M  V30 7 2 7 8
M  V30 8 1 8 9
M  V30 9 2 9 10
M  V30 10 1 9 11
M  V30 11 1 11 12
M  V30 12 1 12 13
M  V30 13 1 13 14 CFG=3
M  V30 14 1 13 15
M  V30 15 1 15 16
M  V30 16 1 16 17
M  V30 17 1 17 18
M  V30 18 1 18 19 CFG=1
M  V30 19 1 18 20
M  V30 20 1 20 21
M  V30 21 1 21 22
M  V30 22 1 22 23
M  V30 23 1 23 24
M  V30 24 1 24 25
M  V30 25 1 25 26
M  V30 26 2 26 27
M  V30 27 1 26 28
M  V30 28 1 20 29
M  V30 29 1 29 5
M  V30 30 1 13 7
M  V30 31 1 29 15
M  V30 32 1 23 18
M  V30 33 1 23 28 CFG=3
M  V30 34 1 1 30
M  V30 35 1 1 31
M  V30 36 1 1 32
M  V30 37 1 5 33 CFG=3
M  V30 38 1 6 34
M  V30 39 1 6 35
M  V30 40 1 8 36
M  V30 41 1 11 37
M  V30 42 1 11 38
M  V30 43 1 12 39
M  V30 44 1 12 40
M  V30 45 1 14 41
M  V30 46 1 14 42
M  V30 47 1 14 43
M  V30 48 1 15 44 CFG=1
M  V30 49 1 16 45
M  V30 50 1 16 46
M  V30 51 1 17 47
M  V30 52 1 17 48
M  V30 53 1 19 49
M  V30 54 1 19 50
M  V30 55 1 19 51
M  V30 56 1 20 52 CFG=3
M  V30 57 1 21 53
M  V30 58 1 21 54
M  V30 59 1 22 55
M  V30 60 1 22 56
M  V30 61 1 24 57
M  V30 62 1 24 58
M  V30 63 1 25 59
M  V30 64 1 25 60
M  V30 65 1 29 61 CFG=3
M  V30 END BOND
M  V30 END CTAB
M  END
>  <Dataset>  (906) 
OralDrugs

>  <Ligand_Instance>  (906) 
nan

>  <PDB_ID>  (906) 
nan

>  <Standardized_SMILES>  (906) 
CC(=O)S[C@@H]1CC2=CC(=O)CC[C@]2(C)[C@H]2CC[C@@]3(C)[C@@H](CC[C@@]34CCC(=O)O4)[C@H]12

>  <Name>  (906) 
Spironolactone

>  <Pocket>  (906) 
nan

>  <ATP_Site>  (906) 
nan

>  <Peripheral>  (906) 
nan

>  <Num_H_Atoms_ProtBoundConf>  (906) 
nan

>  <Num_Resolved_Atoms>  (906) 
nan

>  <Num_Not_Resolved_Atoms>  (906) 
nan

$$$$
CHEMBL2079587
     RDKit          3D

  0  0  0  0  0  0  0  0  0  0999 V3000
M  V30 BEGIN CTAB
M  V30 COUNTS 56 60 0 0 0
M  V30 BEGIN ATOM
M  V30 1 C 1.809002 -0.066530 2.113811 0
M  V30 2 C 1.675475 -0.807740 0.808668 0 CFG=2
M  V30 3 C 2.352091 -2.148514 1.012513 0
M  V30 4 C 3.737620 -2.167278 0.495080 0
M  V30 5 C 4.528013 -3.303248 0.483139 0
M  V30 6 N 5.707239 -2.939803 -0.052730 0
M  V30 7 N 5.690725 -1.643043 -0.372896 0
M  V30 8 C 4.490478 -1.120871 -0.052013 0
M  V30 9 C 3.779481 0.188980 -0.113801 0
M  V30 10 C 2.343175 -0.130273 -0.338532 0 CFG=2
M  V30 11 C 1.578422 1.095055 -0.826067 0
M  V30 12 C 0.278308 0.521413 -1.374526 0
M  V30 13 C -0.484498 0.062290 -0.182319 0 CFG=2
M  V30 14 C 0.238523 -1.055589 0.553565 0 CFG=2
M  V30 15 C -0.485718 -1.424336 1.812480 0
M  V30 16 C -1.954464 -1.640564 1.618822 0
M  V30 17 C -2.559087 -0.479329 0.890835 0 CFG=1
M  V30 18 C -2.376770 0.827341 1.618260 0
M  V30 19 C -1.848293 -0.482284 -0.459055 0 CFG=1
M  V30 20 C -2.743772 0.325844 -1.299289 0
M  V30 21 C -4.064070 -0.410378 -1.014810 0
M  V30 22 C -3.974853 -0.627668 0.503452 0 CFG=1
M  V30 23 C -4.648718 -1.901536 0.920603 0
M  V30 24 O -4.758934 0.390552 1.051892 0
M  V30 25 H 1.029646 0.695749 2.268648 0
M  V30 26 H 1.695719 -0.822477 2.927581 0
M  V30 27 H 2.773696 0.408002 2.288644 0
M  V30 28 H 2.397357 -2.431029 2.085168 0
M  V30 29 H 1.767820 -2.965193 0.504833 0
M  V30 30 H 4.350576 -4.319460 0.805768 0
M  V30 31 H 6.548014 -3.570941 -0.210711 0
M  V30 32 H 4.110608 0.772758 -1.022573 0
M  V30 33 H 4.018493 0.834652 0.730096 0
M  V30 34 H 2.309645 -0.838156 -1.194509 0
M  V30 35 H 2.202592 1.573985 -1.590127 0
M  V30 36 H 1.317061 1.763314 0.019795 0
M  V30 37 H -0.327821 1.301773 -1.877906 0
M  V30 38 H 0.511314 -0.304441 -2.067204 0
M  V30 39 H -0.514709 0.907427 0.540187 0
M  V30 40 H 0.171850 -1.954960 -0.117621 0
M  V30 41 H -0.073894 -2.429250 2.118099 0
M  V30 42 H -0.327195 -0.773642 2.669862 0
M  V30 43 H -2.415046 -1.851113 2.581484 0
M  V30 44 H -2.010453 -2.513413 0.904551 0
M  V30 45 H -1.549326 0.838396 2.325299 0
M  V30 46 H -3.306704 0.940567 2.248682 0
M  V30 47 H -2.353408 1.714923 0.985406 0
M  V30 48 H -1.795015 -1.497499 -0.846475 0
M  V30 49 H -2.895339 1.369129 -1.021113 0
M  V30 50 H -2.584425 0.225090 -2.390563 0
M  V30 51 H -4.047848 -1.425491 -1.467718 0
M  V30 52 H -4.939000 0.163651 -1.314750 0
M  V30 53 H -4.032779 -2.793814 0.949960 0
M  V30 54 H -5.446335 -2.093843 0.147082 0
M  V30 55 H -5.095479 -1.781035 1.932102 0
M  V30 56 H -5.175486 0.987984 0.413786 0
M  V30 END ATOM
M  V30 BEGIN BOND
M  V30 1 1 2 1 CFG=1
M  V30 2 1 2 3
M  V30 3 1 3 4
M  V30 4 2 4 5
M  V30 5 1 5 6
M  V30 6 1 6 7
M  V30 7 2 7 8
M  V30 8 1 8 9
M  V30 9 1 9 10
M  V30 10 1 10 11
M  V30 11 1 11 12
M  V30 12 1 12 13
M  V30 13 1 13 14
M  V30 14 1 14 15
M  V30 15 1 15 16
M  V30 16 1 16 17
M  V30 17 1 17 18 CFG=1
M  V30 18 1 17 19
M  V30 19 1 19 20
M  V30 20 1 20 21
M  V30 21 1 21 22
M  V30 22 1 22 23
M  V30 23 1 22 24 CFG=1
M  V30 24 1 10 2
M  V30 25 1 19 13
M  V30 26 1 14 2
M  V30 27 1 22 17
M  V30 28 1 8 4
M  V30 29 1 1 25
M  V30 30 1 1 26
M  V30 31 1 1 27
M  V30 32 1 3 28
M  V30 33 1 3 29
M  V30 34 1 5 30
M  V30 35 1 6 31
M  V30 36 1 9 32
M  V30 37 1 9 33
M  V30 38 1 10 34 CFG=3
M  V30 39 1 11 35
M  V30 40 1 11 36
M  V30 41 1 12 37
M  V30 42 1 12 38
M  V30 43 1 13 39 CFG=1
M  V30 44 1 14 40 CFG=3
M  V30 45 1 15 41
M  V30 46 1 15 42
M  V30 47 1 16 43
M  V30 48 1 16 44
M  V30 49 1 18 45
M  V30 50 1 18 46
M  V30 51 1 18 47
M  V30 52 1 19 48 CFG=3
M  V30 53 1 20 49
M  V30 54 1 20 50
M  V30 55 1 21 51
M  V30 56 1 21 52
M  V30 57 1 23 53
M  V30 58 1 23 54
M  V30 59 1 23 55
M  V30 60 1 24 56
M  V30 END BOND
M  V30 END CTAB
M  END
>  <Dataset>  (907) 
OralDrugs

>  <Ligand_Instance>  (907) 
nan

>  <PDB_ID>  (907) 
nan

>  <Standardized_SMILES>  (907) 
C[C@]12Cc3c[nH]nc3C[C@@H]1CC[C@@H]1[C@@H]2CC[C@@]2(C)[C@H]1CC[C@]2(C)O

>  <Name>  (907) 
Stanozolol

>  <Pocket>  (907) 
nan

>  <ATP_Site>  (907) 
nan

>  <Peripheral>  (907) 
nan

>  <Num_H_Atoms_ProtBoundConf>  (907) 
nan

>  <Num_Resolved_Atoms>  (907) 
nan

>  <Num_Not_Resolved_Atoms>  (907) 
nan

$$$$
CHEMBL1983350
     RDKit          3D

  0  0  0  0  0  0  0  0  0  0999 V3000
M  V30 BEGIN CTAB
M  V30 COUNTS 35 36 0 0 0
M  V30 BEGIN ATOM
M  V30 1 C -1.018072 -3.197860 0.396855 0
M  V30 2 C 0.315648 -3.312731 1.105021 0
M  V30 3 C 0.103917 -3.036165 2.571940 0
M  V30 4 C 0.763349 -4.754126 0.991282 0
M  V30 5 C 1.364958 -2.443786 0.486228 0
M  V30 6 O 2.553413 -2.608254 1.193420 0
M  V30 7 C 0.990097 -1.013683 0.539743 0
M  V30 8 C 0.543508 -0.301284 -0.480901 0
M  V30 9 C 0.164916 1.106676 -0.466676 0
M  V30 10 C -0.291846 1.736945 -1.617921 0
M  V30 11 C -0.644557 3.068316 -1.583101 0
M  V30 12 C -0.570250 3.838070 -0.441797 0
M  V30 13 C -0.119864 3.225612 0.703246 0
M  V30 14 C 0.236694 1.877015 0.665084 0
M  V30 15 O -0.122637 4.180618 1.736579 0
M  V30 16 C -0.931971 5.289109 1.314978 0
M  V30 17 O -0.843098 5.165283 -0.089713 0
M  V30 18 H -0.940718 -3.325036 -0.682858 0
M  V30 19 H -1.688792 -3.999192 0.770297 0
M  V30 20 H -1.486295 -2.220106 0.692104 0
M  V30 21 H 1.076582 -2.802323 3.061052 0
M  V30 22 H -0.304875 -3.917486 3.106665 0
M  V30 23 H -0.642051 -2.222715 2.688166 0
M  V30 24 H 1.533999 -4.920163 1.777130 0
M  V30 25 H -0.092498 -5.431635 1.253152 0
M  V30 26 H 1.126598 -4.909744 -0.035806 0
M  V30 27 H 1.531544 -2.807039 -0.540024 0
M  V30 28 H 3.043911 -3.440447 0.926635 0
M  V30 29 H 1.081378 -0.489565 1.480950 0
M  V30 30 H 0.459114 -0.846005 -1.416766 0
M  V30 31 H -0.371774 1.188801 -2.539569 0
M  V30 32 H -1.000029 3.551826 -2.486667 0
M  V30 33 H 0.575765 1.478016 1.594986 0
M  V30 34 H -0.513880 6.250047 1.693167 0
M  V30 35 H -1.988021 5.171556 1.662407 0
M  V30 END ATOM
M  V30 BEGIN BOND
M  V30 1 1 1 2
M  V30 2 1 2 3
M  V30 3 1 2 4
M  V30 4 1 2 5
M  V30 5 1 5 6
M  V30 6 1 5 7
M  V30 7 2 7 8
M  V30 8 1 8 9
M  V30 9 2 9 10
M  V30 10 1 10 11
M  V30 11 2 11 12
M  V30 12 1 12 13
M  V30 13 2 13 14
M  V30 14 1 13 15
M  V30 15 1 15 16
M  V30 16 1 16 17
M  V30 17 1 14 9
M  V30 18 1 17 12
M  V30 19 1 1 18
M  V30 20 1 1 19
M  V30 21 1 1 20
M  V30 22 1 3 21
M  V30 23 1 3 22
M  V30 24 1 3 23
M  V30 25 1 4 24
M  V30 26 1 4 25
M  V30 27 1 4 26
M  V30 28 1 5 27
M  V30 29 1 6 28
M  V30 30 1 7 29
M  V30 31 1 8 30
M  V30 32 1 10 31
M  V30 33 1 11 32
M  V30 34 1 14 33
M  V30 35 1 16 34
M  V30 36 1 16 35
M  V30 END BOND
M  V30 END CTAB
M  END
>  <Dataset>  (908) 
OralDrugs

>  <Ligand_Instance>  (908) 
nan

>  <PDB_ID>  (908) 
nan

>  <Standardized_SMILES>  (908) 
CC(C)(C)C(O)/C=C/c1ccc2c(c1)OCO2

>  <Name>  (908) 
Stiripentol

>  <Pocket>  (908) 
nan

>  <ATP_Site>  (908) 
nan

>  <Peripheral>  (908) 
nan

>  <Num_H_Atoms_ProtBoundConf>  (908) 
nan

>  <Num_Resolved_Atoms>  (908) 
nan

>  <Num_Not_Resolved_Atoms>  (908) 
nan

$$$$
CHEMBL1201073
     RDKit          3D

  0  0  0  0  0  0  0  0  0  0999 V3000
M  V30 BEGIN CTAB
M  V30 COUNTS 16 15 0 0 0
M  V30 BEGIN ATOM
M  V30 1 O -0.112084 -0.830548 3.446237 0
M  V30 2 C 0.640691 -0.914070 2.440738 0
M  V30 3 O 0.810405 -2.230676 1.982859 0
M  V30 4 C 1.341827 0.164001 1.710120 0 CFG=1
M  V30 5 S 3.109718 -0.127731 1.811847 0
M  V30 6 C 0.897137 0.212641 0.246311 0 CFG=1
M  V30 7 S -0.866389 0.516823 0.108837 0
M  V30 8 C 1.739452 1.121705 -0.539901 0
M  V30 9 O 1.275148 2.124440 -1.139835 0
M  V30 10 O 3.091507 0.813333 -0.587364 0
M  V30 11 H 0.203063 -2.993360 2.279977 0
M  V30 12 H 1.088925 1.147498 2.164653 0
M  V30 13 H 3.819238 1.022525 2.251102 0
M  V30 14 H 1.072519 -0.834570 -0.130091 0
M  V30 15 H -1.140060 1.018453 -1.171040 0
M  V30 16 H 3.736814 1.325318 -1.202899 0
M  V30 END ATOM
M  V30 BEGIN BOND
M  V30 1 2 1 2
M  V30 2 1 2 3
M  V30 3 1 2 4
M  V30 4 1 4 5
M  V30 5 1 4 6
M  V30 6 1 6 7
M  V30 7 1 6 8
M  V30 8 2 8 9
M  V30 9 1 8 10
M  V30 10 1 3 11
M  V30 11 1 4 12 CFG=1
M  V30 12 1 5 13
M  V30 13 1 6 14 CFG=3
M  V30 14 1 7 15
M  V30 15 1 10 16
M  V30 END BOND
M  V30 END CTAB
M  END
>  <Dataset>  (909) 
OralDrugs

>  <Ligand_Instance>  (909) 
nan

>  <PDB_ID>  (909) 
nan

>  <Standardized_SMILES>  (909) 
O=C(O)[C@@H](S)[C@@H](S)C(=O)O

>  <Name>  (909) 
Succimer

>  <Pocket>  (909) 
nan

>  <ATP_Site>  (909) 
nan

>  <Peripheral>  (909) 
nan

>  <Num_H_Atoms_ProtBoundConf>  (909) 
nan

>  <Num_Resolved_Atoms>  (909) 
nan

>  <Num_Not_Resolved_Atoms>  (909) 
nan

$$$$
CHEMBL1201056
     RDKit          3D

  0  0  0  0  0  0  0  0  0  0999 V3000
M  V30 BEGIN CTAB
M  V30 COUNTS 34 35 0 0 0
M  V30 BEGIN ATOM
M  V30 1 C -2.963393 -4.127867 1.989922 0
M  V30 2 C -2.041898 -4.699988 0.910389 0
M  V30 3 N -0.940977 -3.766755 0.755538 0
M  V30 4 C -0.961045 -2.737413 -0.112683 0
M  V30 5 C 0.146805 -1.914791 -0.171522 0
M  V30 6 C 1.288399 -2.058397 0.593180 0
M  V30 7 N 2.402644 -1.183319 0.489078 0
M  V30 8 S 2.626331 0.172848 -0.507265 0
M  V30 9 O 4.032005 0.666770 -0.417265 0
M  V30 10 O 2.411945 -0.320457 -1.937174 0
M  V30 11 C 1.513021 1.468454 -0.261889 0
M  V30 12 C 1.912133 2.318004 0.779619 0
M  V30 13 C 1.165750 3.432818 1.146646 0
M  V30 14 C -0.005515 3.739463 0.487312 0
M  V30 15 N -0.787406 4.872049 0.841803 0
M  V30 16 C -0.389788 2.901637 -0.532686 0
M  V30 17 C 0.338360 1.792527 -0.909374 0
M  V30 18 N 1.239708 -3.122404 1.451338 0
M  V30 19 C 0.162632 -3.922625 1.508855 0
M  V30 20 O 0.303976 -4.854421 2.364341 0
M  V30 21 H -2.437159 -4.251283 2.981362 0
M  V30 22 H -3.955534 -4.581250 1.998320 0
M  V30 23 H -2.977999 -3.030569 1.820582 0
M  V30 24 H -2.621097 -4.690756 -0.039321 0
M  V30 25 H -1.688917 -5.715566 1.168706 0
M  V30 26 H -1.832214 -2.581560 -0.734657 0
M  V30 27 H 0.064874 -1.119431 -0.883183 0
M  V30 28 H 3.189773 -1.445041 1.143484 0
M  V30 29 H 2.816783 2.206201 1.395936 0
M  V30 30 H 1.451513 4.100775 1.943462 0
M  V30 31 H -0.429391 5.799394 1.179259 0
M  V30 32 H -1.829530 4.923301 0.810238 0
M  V30 33 H -1.309478 3.083292 -1.101060 0
M  V30 34 H 0.103081 1.102878 -1.693047 0
M  V30 END ATOM
M  V30 BEGIN BOND
M  V30 1 1 1 2
M  V30 2 1 2 3
M  V30 3 1 3 4
M  V30 4 2 4 5
M  V30 5 1 5 6
M  V30 6 1 6 7
M  V30 7 1 7 8
M  V30 8 2 8 9
M  V30 9 2 8 10
M  V30 10 1 8 11
M  V30 11 2 11 12
M  V30 12 1 12 13
M  V30 13 2 13 14
M  V30 14 1 14 15
M  V30 15 1 14 16
M  V30 16 2 16 17
M  V30 17 2 6 18
M  V30 18 1 18 19
M  V30 19 2 19 20
M  V30 20 1 19 3
M  V30 21 1 17 11
M  V30 22 1 1 21
M  V30 23 1 1 22
M  V30 24 1 1 23
M  V30 25 1 2 24
M  V30 26 1 2 25
M  V30 27 1 4 26
M  V30 28 1 5 27
M  V30 29 1 7 28
M  V30 30 1 12 29
M  V30 31 1 13 30
M  V30 32 1 15 31
M  V30 33 1 15 32
M  V30 34 1 16 33
M  V30 35 1 17 34
M  V30 END BOND
M  V30 END CTAB
M  END
>  <Dataset>  (910) 
OralDrugs

>  <Ligand_Instance>  (910) 
nan

>  <PDB_ID>  (910) 
nan

>  <Standardized_SMILES>  (910) 
CCn1ccc(NS(=O)(=O)c2ccc(N)cc2)nc1=O

>  <Name>  (910) 
Sulfacytine

>  <Pocket>  (910) 
nan

>  <ATP_Site>  (910) 
nan

>  <Peripheral>  (910) 
nan

>  <Num_H_Atoms_ProtBoundConf>  (910) 
nan

>  <Num_Resolved_Atoms>  (910) 
nan

>  <Num_Not_Resolved_Atoms>  (910) 
nan

$$$$
CHEMBL439
     RDKit          3D

  0  0  0  0  0  0  0  0  0  0999 V3000
M  V30 BEGIN CTAB
M  V30 COUNTS 27 28 0 0 0
M  V30 BEGIN ATOM
M  V30 1 N -1.384183 -4.706203 1.237287 0
M  V30 2 C -0.526659 -3.578363 1.328784 0
M  V30 3 C -0.295685 -2.999566 2.554425 0
M  V30 4 C 0.543667 -1.909137 2.584634 0
M  V30 5 C 1.182881 -1.337417 1.477787 0
M  V30 6 S 2.209880 0.042826 1.733859 0
M  V30 7 O 3.342472 0.060250 0.741284 0
M  V30 8 O 2.822542 -0.111019 3.089271 0
M  V30 9 N 1.272345 1.479373 1.634217 0
M  V30 10 C 0.581479 1.858791 0.466376 0
M  V30 11 N 0.593034 1.137135 -0.668140 0
M  V30 12 C -0.072964 1.514004 -1.776064 0
M  V30 13 C -0.811759 2.680445 -1.797683 0
M  V30 14 C -0.829231 3.427607 -0.637266 0
M  V30 15 N -0.142341 2.992064 0.429823 0
M  V30 16 C 0.913693 -1.960361 0.275284 0
M  V30 17 C 0.078862 -3.053155 0.209009 0
M  V30 18 H -1.172941 -5.713279 1.467228 0
M  V30 19 H -2.286972 -4.341112 0.890377 0
M  V30 20 H -0.738529 -3.361599 3.469939 0
M  V30 21 H 0.724345 -1.450509 3.569013 0
M  V30 22 H 1.218517 2.088234 2.476653 0
M  V30 23 H 0.032572 0.830737 -2.606494 0
M  V30 24 H -1.331124 2.946410 -2.706754 0
M  V30 25 H -1.391371 4.342827 -0.609051 0
M  V30 26 H 1.398171 -1.534446 -0.585566 0
M  V30 27 H -0.085044 -3.488901 -0.769997 0
M  V30 END ATOM
M  V30 BEGIN BOND
M  V30 1 1 1 2
M  V30 2 2 2 3
M  V30 3 1 3 4
M  V30 4 2 4 5
M  V30 5 1 5 6
M  V30 6 2 6 7
M  V30 7 2 6 8
M  V30 8 1 6 9
M  V30 9 1 9 10
M  V30 10 2 10 11
M  V30 11 1 11 12
M  V30 12 2 12 13
M  V30 13 1 13 14
M  V30 14 2 14 15
M  V30 15 1 5 16
M  V30 16 2 16 17
M  V30 17 1 17 2
M  V30 18 1 15 10
M  V30 19 1 1 18
M  V30 20 1 1 19
M  V30 21 1 3 20
M  V30 22 1 4 21
M  V30 23 1 9 22
M  V30 24 1 12 23
M  V30 25 1 13 24
M  V30 26 1 14 25
M  V30 27 1 16 26
M  V30 28 1 17 27
M  V30 END BOND
M  V30 END CTAB
M  END
>  <Dataset>  (911) 
OralDrugs

>  <Ligand_Instance>  (911) 
nan

>  <PDB_ID>  (911) 
nan

>  <Standardized_SMILES>  (911) 
Nc1ccc(S(=O)(=O)Nc2ncccn2)cc1

>  <Name>  (911) 
Sulfadiazine

>  <Pocket>  (911) 
nan

>  <ATP_Site>  (911) 
nan

>  <Peripheral>  (911) 
nan

>  <Num_H_Atoms_ProtBoundConf>  (911) 
nan

>  <Num_Resolved_Atoms>  (911) 
nan

>  <Num_Not_Resolved_Atoms>  (911) 
nan

$$$$
CHEMBL1539
     RDKit          3D

  0  0  0  0  0  0  0  0  0  0999 V3000
M  V30 BEGIN CTAB
M  V30 COUNTS 35 36 0 0 0
M  V30 BEGIN ATOM
M  V30 1 C -2.077580 -5.249475 1.964743 0
M  V30 2 O -2.232467 -4.188037 1.029390 0
M  V30 3 C -1.144798 -3.382323 0.753081 0
M  V30 4 N 0.063226 -3.582096 1.353349 0
M  V30 5 C 1.116987 -2.805186 1.088707 0
M  V30 6 N 0.981088 -1.800855 0.207495 0
M  V30 7 C -0.147188 -1.511788 -0.438076 0
M  V30 8 N -0.283098 -0.447546 -1.368951 0
M  V30 9 S 1.041438 0.590109 -1.751985 0
M  V30 10 O 2.172905 -0.332870 -2.182066 0
M  V30 11 O 0.679886 1.491367 -2.878011 0
M  V30 12 C 1.592477 1.448841 -0.348718 0
M  V30 13 C 2.564361 1.062400 0.550304 0
M  V30 14 C 2.871612 1.878041 1.613167 0
M  V30 15 C 2.212976 3.078913 1.783492 0
M  V30 16 N 2.577264 3.879081 2.905109 0
M  V30 17 C 1.231057 3.501723 0.902031 0
M  V30 18 C 0.929578 2.661410 -0.174051 0
M  V30 19 C -1.200431 -2.330014 -0.139006 0
M  V30 20 O -2.442840 -2.147326 -0.737479 0
M  V30 21 C -3.433768 -1.309140 -0.167566 0
M  V30 22 H -2.814415 -5.114791 2.778409 0
M  V30 23 H -1.058014 -5.315616 2.371894 0
M  V30 24 H -2.292312 -6.203972 1.439363 0
M  V30 25 H 2.081286 -2.936802 1.544779 0
M  V30 26 H -1.198915 -0.292516 -1.827132 0
M  V30 27 H 3.022115 0.108115 0.331833 0
M  V30 28 H 3.642163 1.518368 2.281736 0
M  V30 29 H 2.765297 3.516459 3.866605 0
M  V30 30 H 2.734572 4.914208 3.049317 0
M  V30 31 H 0.739784 4.449604 1.072364 0
M  V30 32 H 0.156234 3.066134 -0.808729 0
M  V30 33 H -2.877000 -0.415626 0.204697 0
M  V30 34 H -3.953340 -1.760689 0.691166 0
M  V30 35 H -4.125979 -0.909560 -0.931969 0
M  V30 END ATOM
M  V30 BEGIN BOND
M  V30 1 1 1 2
M  V30 2 1 2 3
M  V30 3 2 3 4
M  V30 4 1 4 5
M  V30 5 2 5 6
M  V30 6 1 6 7
M  V30 7 1 7 8
M  V30 8 1 8 9
M  V30 9 2 9 10
M  V30 10 2 9 11
M  V30 11 1 9 12
M  V30 12 2 12 13
M  V30 13 1 13 14
M  V30 14 2 14 15
M  V30 15 1 15 16
M  V30 16 1 15 17
M  V30 17 2 17 18
M  V30 18 2 7 19
M  V30 19 1 19 20
M  V30 20 1 20 21
M  V30 21 1 19 3
M  V30 22 1 18 12
M  V30 23 1 1 22
M  V30 24 1 1 23
M  V30 25 1 1 24
M  V30 26 1 5 25
M  V30 27 1 8 26
M  V30 28 1 13 27
M  V30 29 1 14 28
M  V30 30 1 16 29
M  V30 31 1 16 30
M  V30 32 1 17 31
M  V30 33 1 18 32
M  V30 34 1 21 33
M  V30 35 1 21 34
M  V30 36 1 21 35
M  V30 END BOND
M  V30 END CTAB
M  END
>  <Dataset>  (912) 
OralDrugs

>  <Ligand_Instance>  (912) 
nan

>  <PDB_ID>  (912) 
nan

>  <Standardized_SMILES>  (912) 
COc1ncnc(NS(=O)(=O)c2ccc(N)cc2)c1OC

>  <Name>  (912) 
Sulfadoxine

>  <Pocket>  (912) 
nan

>  <ATP_Site>  (912) 
nan

>  <Peripheral>  (912) 
nan

>  <Num_H_Atoms_ProtBoundConf>  (912) 
nan

>  <Num_Resolved_Atoms>  (912) 
nan

>  <Num_Not_Resolved_Atoms>  (912) 
nan

$$$$
CHEMBL1525826
     RDKit          3D

  0  0  0  0  0  0  0  0  0  0999 V3000
M  V30 BEGIN CTAB
M  V30 COUNTS 31 32 0 0 0
M  V30 BEGIN ATOM
M  V30 1 C -3.295841 -4.349393 1.194992 0
M  V30 2 O -2.566411 -3.281380 0.604595 0
M  V30 3 C -1.169259 -3.277445 0.643787 0
M  V30 4 N -0.526138 -4.306850 1.252772 0
M  V30 5 C 0.813844 -4.302795 1.290206 0
M  V30 6 C 1.489697 -3.251006 0.707519 0
M  V30 7 N 0.811326 -2.251800 0.114790 0
M  V30 8 C -0.529318 -2.209331 0.050683 0
M  V30 9 N -1.237889 -1.149823 -0.577475 0
M  V30 10 S -0.407359 0.151104 -1.298196 0
M  V30 11 O 0.468345 -0.331051 -2.432649 0
M  V30 12 O -1.430912 1.094659 -1.912721 0
M  V30 13 C 0.563283 1.082124 -0.211001 0
M  V30 14 C -0.019938 2.176658 0.438792 0
M  V30 15 C 0.685837 2.986456 1.333586 0
M  V30 16 C 2.000931 2.707543 1.592678 0
M  V30 17 N 2.700553 3.547406 2.508918 0
M  V30 18 C 2.601874 1.651167 0.979388 0
M  V30 19 C 1.889447 0.863408 0.099523 0
M  V30 20 H -4.342433 -4.319519 0.866375 0
M  V30 21 H -3.198481 -4.315926 2.310555 0
M  V30 22 H -2.852319 -5.278366 0.823321 0
M  V30 23 H 1.435953 -5.058534 1.741740 0
M  V30 24 H 2.585645 -3.212043 0.717704 0
M  V30 25 H -2.281767 -1.207537 -0.575446 0
M  V30 26 H -1.068376 2.436044 0.261400 0
M  V30 27 H 0.200690 3.823469 1.816238 0
M  V30 28 H 3.421755 4.289488 2.297954 0
M  V30 29 H 2.410492 3.346753 3.507468 0
M  V30 30 H 3.642169 1.397777 1.158540 0
M  V30 31 H 2.359236 0.024430 -0.390572 0
M  V30 END ATOM
M  V30 BEGIN BOND
M  V30 1 1 1 2
M  V30 2 1 2 3
M  V30 3 2 3 4
M  V30 4 1 4 5
M  V30 5 2 5 6
M  V30 6 1 6 7
M  V30 7 2 7 8
M  V30 8 1 8 9
M  V30 9 1 9 10
M  V30 10 2 10 11
M  V30 11 2 10 12
M  V30 12 1 10 13
M  V30 13 2 13 14
M  V30 14 1 14 15
M  V30 15 2 15 16
M  V30 16 1 16 17
M  V30 17 1 16 18
M  V30 18 2 18 19
M  V30 19 1 8 3
M  V30 20 1 19 13
M  V30 21 1 1 20
M  V30 22 1 1 21
M  V30 23 1 1 22
M  V30 24 1 5 23
M  V30 25 1 6 24
M  V30 26 1 9 25
M  V30 27 1 14 26
M  V30 28 1 15 27
M  V30 29 1 17 28
M  V30 30 1 17 29
M  V30 31 1 18 30
M  V30 32 1 19 31
M  V30 END BOND
M  V30 END CTAB
M  END
>  <Dataset>  (913) 
OralDrugs

>  <Ligand_Instance>  (913) 
nan

>  <PDB_ID>  (913) 
nan

>  <Standardized_SMILES>  (913) 
COc1nccnc1NS(=O)(=O)c1ccc(N)cc1

>  <Name>  (913) 
Sulfalene

>  <Pocket>  (913) 
nan

>  <ATP_Site>  (913) 
nan

>  <Peripheral>  (913) 
nan

>  <Num_H_Atoms_ProtBoundConf>  (913) 
nan

>  <Num_Resolved_Atoms>  (913) 
nan

>  <Num_Not_Resolved_Atoms>  (913) 
nan

$$$$
CHEMBL438
     RDKit          3D

  0  0  0  0  0  0  0  0  0  0999 V3000
M  V30 BEGIN CTAB
M  V30 COUNTS 30 31 0 0 0
M  V30 BEGIN ATOM
M  V30 1 C -1.903640 -3.387412 0.851222 0
M  V30 2 C -0.414433 -3.411665 0.756188 0
M  V30 3 C 0.234029 -4.487591 1.323079 0
M  V30 4 C 1.602246 -4.497108 1.228484 0
M  V30 5 N 2.241860 -3.509538 0.617866 0
M  V30 6 C 1.639008 -2.446172 0.054811 0
M  V30 7 N 2.364763 -1.413217 -0.588337 0
M  V30 8 S 1.559659 -0.053815 -1.305332 0
M  V30 9 O 2.507115 0.826619 -2.028059 0
M  V30 10 O 0.549586 -0.571780 -2.304787 0
M  V30 11 C 0.670337 0.859759 -0.104519 0
M  V30 12 C -0.644068 0.694127 0.288669 0
M  V30 13 C -1.164051 1.525182 1.262783 0
M  V30 14 C -0.409636 2.516911 1.855709 0
M  V30 15 N -0.977318 3.356459 2.857339 0
M  V30 16 C 0.905803 2.703201 1.480908 0
M  V30 17 C 1.421062 1.869476 0.506337 0
M  V30 18 N 0.300471 -2.461273 0.161294 0
M  V30 19 H -2.340416 -2.686386 0.109618 0
M  V30 20 H -2.355123 -4.370332 0.667542 0
M  V30 21 H -2.197984 -3.019472 1.850497 0
M  V30 22 H -0.260668 -5.289248 1.816956 0
M  V30 23 H 2.148332 -5.333563 1.666132 0
M  V30 24 H 3.403763 -1.501012 -0.614596 0
M  V30 25 H -1.150443 -0.103208 -0.230339 0
M  V30 26 H -2.194121 1.342709 1.522866 0
M  V30 27 H -1.654115 4.159841 2.847780 0
M  V30 28 H -0.641189 3.115530 3.825278 0
M  V30 29 H 1.496200 3.481360 1.946778 0
M  V30 30 H 2.465848 2.074476 0.260735 0
M  V30 END ATOM
M  V30 BEGIN BOND
M  V30 1 1 1 2
M  V30 2 2 2 3
M  V30 3 1 3 4
M  V30 4 2 4 5
M  V30 5 1 5 6
M  V30 6 1 6 7
M  V30 7 1 7 8
M  V30 8 2 8 9
M  V30 9 2 8 10
M  V30 10 1 8 11
M  V30 11 2 11 12
M  V30 12 1 12 13
M  V30 13 2 13 14
M  V30 14 1 14 15
M  V30 15 1 14 16
M  V30 16 2 16 17
M  V30 17 2 6 18
M  V30 18 1 18 2
M  V30 19 1 17 11
M  V30 20 1 1 19
M  V30 21 1 1 20
M  V30 22 1 1 21
M  V30 23 1 3 22
M  V30 24 1 4 23
M  V30 25 1 7 24
M  V30 26 1 12 25
M  V30 27 1 13 26
M  V30 28 1 15 27
M  V30 29 1 15 28
M  V30 30 1 16 29
M  V30 31 1 17 30
M  V30 END BOND
M  V30 END CTAB
M  END
>  <Dataset>  (914) 
OralDrugs

>  <Ligand_Instance>  (914) 
nan

>  <PDB_ID>  (914) 
nan

>  <Standardized_SMILES>  (914) 
Cc1ccnc(NS(=O)(=O)c2ccc(N)cc2)n1

>  <Name>  (914) 
Sulfamerazine

>  <Pocket>  (914) 
nan

>  <ATP_Site>  (914) 
nan

>  <Peripheral>  (914) 
nan

>  <Num_H_Atoms_ProtBoundConf>  (914) 
nan

>  <Num_Resolved_Atoms>  (914) 
nan

>  <Num_Not_Resolved_Atoms>  (914) 
nan

$$$$
CHEMBL1200359
     RDKit          3D

  0  0  0  0  0  0  0  0  0  0999 V3000
M  V30 BEGIN CTAB
M  V30 COUNTS 31 32 0 0 0
M  V30 BEGIN ATOM
M  V30 1 C -3.077023 -4.347588 2.289507 0
M  V30 2 O -1.809238 -4.667517 1.776478 0
M  V30 3 C -1.017256 -3.845987 1.023316 0
M  V30 4 C -1.311970 -2.571210 0.634074 0
M  V30 5 N -0.414652 -1.899600 -0.109465 0
M  V30 6 C 0.763200 -2.357444 -0.518069 0
M  V30 7 N 1.672474 -1.608199 -1.300631 0
M  V30 8 S 1.328066 -0.006121 -1.802694 0
M  V30 9 O 2.375707 0.538820 -2.717555 0
M  V30 10 O 0.036539 -0.021510 -2.601143 0
M  V30 11 C 1.131108 1.039436 -0.423344 0
M  V30 12 C -0.032554 1.344264 0.265937 0
M  V30 13 C -0.006142 2.191981 1.338135 0
M  V30 14 C 1.163720 2.771118 1.772365 0
M  V30 15 N 1.124330 3.644983 2.894898 0
M  V30 16 C 2.339005 2.490305 1.110578 0
M  V30 17 C 2.303032 1.626657 0.020607 0
M  V30 18 N 1.062609 -3.612958 -0.139388 0
M  V30 19 C 0.204634 -4.334653 0.605243 0
M  V30 20 H -3.242723 -3.257675 2.400040 0
M  V30 21 H -3.820828 -4.700675 1.545292 0
M  V30 22 H -3.311169 -4.875100 3.232372 0
M  V30 23 H -2.260404 -2.152992 0.942102 0
M  V30 24 H 2.581159 -2.032321 -1.586103 0
M  V30 25 H -0.907419 0.851629 -0.135850 0
M  V30 26 H -0.932797 2.401066 1.844227 0
M  V30 27 H 1.041166 3.094960 3.777821 0
M  V30 28 H 1.170802 4.686923 2.857578 0
M  V30 29 H 3.217850 2.958638 1.479112 0
M  V30 30 H 3.272314 1.466451 -0.434320 0
M  V30 31 H 0.511096 -5.339993 0.874342 0
M  V30 END ATOM
M  V30 BEGIN BOND
M  V30 1 1 1 2
M  V30 2 1 2 3
M  V30 3 2 3 4
M  V30 4 1 4 5
M  V30 5 2 5 6
M  V30 6 1 6 7
M  V30 7 1 7 8
M  V30 8 2 8 9
M  V30 9 2 8 10
M  V30 10 1 8 11
M  V30 11 2 11 12
M  V30 12 1 12 13
M  V30 13 2 13 14
M  V30 14 1 14 15
M  V30 15 1 14 16
M  V30 16 2 16 17
M  V30 17 1 6 18
M  V30 18 2 18 19
M  V30 19 1 19 3
M  V30 20 1 17 11
M  V30 21 1 1 20
M  V30 22 1 1 21
M  V30 23 1 1 22
M  V30 24 1 4 23
M  V30 25 1 7 24
M  V30 26 1 12 25
M  V30 27 1 13 26
M  V30 28 1 15 27
M  V30 29 1 15 28
M  V30 30 1 16 29
M  V30 31 1 17 30
M  V30 32 1 19 31
M  V30 END BOND
M  V30 END CTAB
M  END
>  <Dataset>  (915) 
OralDrugs

>  <Ligand_Instance>  (915) 
nan

>  <PDB_ID>  (915) 
nan

>  <Standardized_SMILES>  (915) 
COc1cnc(NS(=O)(=O)c2ccc(N)cc2)nc1

>  <Name>  (915) 
Sulfameter

>  <Pocket>  (915) 
nan

>  <ATP_Site>  (915) 
nan

>  <Peripheral>  (915) 
nan

>  <Num_H_Atoms_ProtBoundConf>  (915) 
nan

>  <Num_Resolved_Atoms>  (915) 
nan

>  <Num_Not_Resolved_Atoms>  (915) 
nan

$$$$
CHEMBL446
     RDKit          3D

  0  0  0  0  0  0  0  0  0  0999 V3000
M  V30 BEGIN CTAB
M  V30 COUNTS 33 34 0 0 0
M  V30 BEGIN ATOM
M  V30 1 C -2.906939 -1.574829 1.225104 0
M  V30 2 C -1.620085 -2.284340 0.895329 0
M  V30 3 C -1.375926 -3.486035 1.525659 0
M  V30 4 C -0.175146 -4.054456 1.157120 0
M  V30 5 C 0.242548 -5.360935 1.748887 0
M  V30 6 N 0.649354 -3.469825 0.270997 0
M  V30 7 C 0.343954 -2.282355 -0.312471 0
M  V30 8 N 1.211933 -1.668589 -1.245401 0
M  V30 9 S 0.903143 -0.166970 -2.029842 0
M  V30 10 O 2.047633 0.207623 -2.920658 0
M  V30 11 O -0.386185 -0.266752 -2.814977 0
M  V30 12 C 0.784601 1.087213 -0.815856 0
M  V30 13 C 1.949185 1.746171 -0.410379 0
M  V30 14 C 2.011029 2.752657 0.530875 0
M  V30 15 C 0.831664 3.147034 1.125373 0
M  V30 16 N 0.783893 4.174190 2.106807 0
M  V30 17 C -0.338893 2.519965 0.751144 0
M  V30 18 C -0.369799 1.515884 -0.193691 0
M  V30 19 N -0.812704 -1.680478 0.007240 0
M  V30 20 H -2.963703 -1.505308 2.330682 0
M  V30 21 H -3.766554 -2.165125 0.852953 0
M  V30 22 H -2.934054 -0.559974 0.815209 0
M  V30 23 H -2.048818 -3.927706 2.225806 0
M  V30 24 H 0.816188 -5.248036 2.687565 0
M  V30 25 H -0.701578 -5.935991 1.901815 0
M  V30 26 H 0.801583 -5.903441 0.966830 0
M  V30 27 H 2.110969 -2.172040 -1.472379 0
M  V30 28 H 2.882035 1.446909 -0.868621 0
M  V30 29 H 2.942457 3.212891 0.791948 0
M  V30 30 H -0.054163 4.304625 2.690126 0
M  V30 31 H 1.635743 4.781797 2.202151 0
M  V30 32 H -1.277175 2.809398 1.201100 0
M  V30 33 H -1.275213 1.024755 -0.491341 0
M  V30 END ATOM
M  V30 BEGIN BOND
M  V30 1 1 1 2
M  V30 2 2 2 3
M  V30 3 1 3 4
M  V30 4 1 4 5
M  V30 5 2 4 6
M  V30 6 1 6 7
M  V30 7 1 7 8
M  V30 8 1 8 9
M  V30 9 2 9 10
M  V30 10 2 9 11
M  V30 11 1 9 12
M  V30 12 2 12 13
M  V30 13 1 13 14
M  V30 14 2 14 15
M  V30 15 1 15 16
M  V30 16 1 15 17
M  V30 17 2 17 18
M  V30 18 2 7 19
M  V30 19 1 19 2
M  V30 20 1 18 12
M  V30 21 1 1 20
M  V30 22 1 1 21
M  V30 23 1 1 22
M  V30 24 1 3 23
M  V30 25 1 5 24
M  V30 26 1 5 25
M  V30 27 1 5 26
M  V30 28 1 8 27
M  V30 29 1 13 28
M  V30 30 1 14 29
M  V30 31 1 16 30
M  V30 32 1 16 31
M  V30 33 1 17 32
M  V30 34 1 18 33
M  V30 END BOND
M  V30 END CTAB
M  END
>  <Dataset>  (916) 
OralDrugs

>  <Ligand_Instance>  (916) 
nan

>  <PDB_ID>  (916) 
nan

>  <Standardized_SMILES>  (916) 
Cc1cc(C)nc(NS(=O)(=O)c2ccc(N)cc2)n1

>  <Name>  (916) 
Sulfamethazine

>  <Pocket>  (916) 
nan

>  <ATP_Site>  (916) 
nan

>  <Peripheral>  (916) 
nan

>  <Num_H_Atoms_ProtBoundConf>  (916) 
nan

>  <Num_Resolved_Atoms>  (916) 
nan

>  <Num_Not_Resolved_Atoms>  (916) 
nan

$$$$
CHEMBL1191
     RDKit          3D

  0  0  0  0  0  0  0  0  0  0999 V3000
M  V30 BEGIN CTAB
M  V30 COUNTS 27 28 0 0 0
M  V30 BEGIN ATOM
M  V30 1 C 0.171970 -4.366535 4.191178 0
M  V30 2 C 0.684001 -3.260059 3.322210 0
M  V30 3 N 0.737151 -3.043369 2.197722 0
M  V30 4 N 1.232905 -1.997095 1.610187 0
M  V30 5 C 1.714970 -1.086123 2.119588 0
M  V30 6 N 2.338962 0.175724 1.939041 0
M  V30 7 S 2.436599 0.536496 0.252569 0
M  V30 8 O 3.206073 -0.545597 -0.463818 0
M  V30 9 O 3.114179 1.862973 0.086176 0
M  V30 10 C 0.851579 0.639783 -0.486994 0
M  V30 11 C 0.224722 1.885693 -0.498256 0
M  V30 12 C -1.022023 2.110879 -1.046769 0
M  V30 13 C -1.705006 1.053449 -1.623015 0
M  V30 14 N -2.992080 1.244784 -2.198863 0
M  V30 15 C -1.094830 -0.186602 -1.618434 0
M  V30 16 C 0.154664 -0.402489 -1.066429 0
M  V30 17 S 1.525447 -1.642094 3.928424 0
M  V30 18 H 0.686851 -5.290575 3.807310 0
M  V30 19 H 0.461253 -4.229079 5.252054 0
M  V30 20 H -0.910252 -4.479305 4.142113 0
M  V30 21 H 2.693003 0.809162 2.674224 0
M  V30 22 H 0.686480 2.775822 -0.067756 0
M  V30 23 H -1.486200 3.086865 -1.042647 0
M  V30 24 H -3.606948 0.419254 -2.381462 0
M  V30 25 H -3.317507 2.206703 -2.436610 0
M  V30 26 H -1.590033 -1.062138 -2.061654 0
M  V30 27 H 0.649728 -1.360888 -1.051855 0
M  V30 END ATOM
M  V30 BEGIN BOND
M  V30 1 1 1 2
M  V30 2 2 2 3
M  V30 3 1 3 4
M  V30 4 2 4 5
M  V30 5 1 5 6
M  V30 6 1 6 7
M  V30 7 2 7 8
M  V30 8 2 7 9
M  V30 9 1 7 10
M  V30 10 2 10 11
M  V30 11 1 11 12
M  V30 12 2 12 13
M  V30 13 1 13 14
M  V30 14 1 13 15
M  V30 15 2 15 16
M  V30 16 1 5 17
M  V30 17 1 17 2
M  V30 18 1 16 10
M  V30 19 1 1 18
M  V30 20 1 1 19
M  V30 21 1 1 20
M  V30 22 1 6 21
M  V30 23 1 11 22
M  V30 24 1 12 23
M  V30 25 1 14 24
M  V30 26 1 14 25
M  V30 27 1 15 26
M  V30 28 1 16 27
M  V30 END BOND
M  V30 END CTAB
M  END
>  <Dataset>  (917) 
OralDrugs

>  <Ligand_Instance>  (917) 
nan

>  <PDB_ID>  (917) 
nan

>  <Standardized_SMILES>  (917) 
Cc1nnc(NS(=O)(=O)c2ccc(N)cc2)s1

>  <Name>  (917) 
Sulfamethizole

>  <Pocket>  (917) 
nan

>  <ATP_Site>  (917) 
nan

>  <Peripheral>  (917) 
nan

>  <Num_H_Atoms_ProtBoundConf>  (917) 
nan

>  <Num_Resolved_Atoms>  (917) 
nan

>  <Num_Not_Resolved_Atoms>  (917) 
nan

$$$$
CHEMBL443
     RDKit          3D

  0  0  0  0  0  0  0  0  0  0999 V3000
M  V30 BEGIN CTAB
M  V30 COUNTS 28 29 0 0 0
M  V30 BEGIN ATOM
M  V30 1 C -2.069053 -4.317098 3.032315 0
M  V30 2 C -0.998097 -3.381818 2.586916 0
M  V30 3 C -0.564494 -2.253833 3.238311 0
M  V30 4 C 0.441068 -1.657460 2.507317 0
M  V30 5 N 1.152763 -0.472924 2.836227 0
M  V30 6 S 2.389561 0.128621 1.789651 0
M  V30 7 O 3.083684 1.307059 2.365700 0
M  V30 8 O 3.372162 -0.999412 1.624127 0
M  V30 9 C 1.624936 0.499866 0.258495 0
M  V30 10 C 1.463150 -0.302232 -0.843769 0
M  V30 11 C 0.829421 0.175677 -1.957443 0
M  V30 12 C 0.334964 1.456739 -2.022658 0
M  V30 13 N -0.326175 1.930361 -3.206528 0
M  V30 14 C 0.492801 2.270952 -0.919400 0
M  V30 15 C 1.130898 1.802567 0.213368 0
M  V30 16 N 0.555307 -2.472237 1.444676 0
M  V30 17 O -0.284478 -3.462353 1.508976 0
M  V30 18 H -2.398944 -4.890377 2.144117 0
M  V30 19 H -1.647287 -4.968881 3.814636 0
M  V30 20 H -2.920738 -3.775976 3.482163 0
M  V30 21 H -0.985496 -1.930599 4.180284 0
M  V30 22 H 0.911633 0.023011 3.721315 0
M  V30 23 H 1.878072 -1.285009 -0.710385 0
M  V30 24 H 0.732480 -0.495729 -2.786657 0
M  V30 25 H -0.175675 2.726951 -3.835878 0
M  V30 26 H -1.112808 1.275469 -3.404198 0
M  V30 27 H 0.097595 3.276368 -0.987971 0
M  V30 28 H 1.198356 2.539308 1.028901 0
M  V30 END ATOM
M  V30 BEGIN BOND
M  V30 1 1 1 2
M  V30 2 2 2 3
M  V30 3 1 3 4
M  V30 4 1 4 5
M  V30 5 1 5 6
M  V30 6 2 6 7
M  V30 7 2 6 8
M  V30 8 1 6 9
M  V30 9 2 9 10
M  V30 10 1 10 11
M  V30 11 2 11 12
M  V30 12 1 12 13
M  V30 13 1 12 14
M  V30 14 2 14 15
M  V30 15 2 4 16
M  V30 16 1 16 17
M  V30 17 1 17 2
M  V30 18 1 15 9
M  V30 19 1 1 18
M  V30 20 1 1 19
M  V30 21 1 1 20
M  V30 22 1 3 21
M  V30 23 1 5 22
M  V30 24 1 10 23
M  V30 25 1 11 24
M  V30 26 1 13 25
M  V30 27 1 13 26
M  V30 28 1 14 27
M  V30 29 1 15 28
M  V30 END BOND
M  V30 END CTAB
M  END
>  <Dataset>  (918) 
OralDrugs

>  <Ligand_Instance>  (918) 
nan

>  <PDB_ID>  (918) 
nan

>  <Standardized_SMILES>  (918) 
Cc1cc(NS(=O)(=O)c2ccc(N)cc2)no1

>  <Name>  (918) 
Sulfamethoxazole

>  <Pocket>  (918) 
nan

>  <ATP_Site>  (918) 
nan

>  <Peripheral>  (918) 
nan

>  <Num_H_Atoms_ProtBoundConf>  (918) 
nan

>  <Num_Resolved_Atoms>  (918) 
nan

>  <Num_Not_Resolved_Atoms>  (918) 
nan

$$$$
CHEMBL1109
     RDKit          3D

  0  0  0  0  0  0  0  0  0  0999 V3000
M  V30 BEGIN CTAB
M  V30 COUNTS 36 38 0 0 0
M  V30 BEGIN ATOM
M  V30 1 N -0.430046 -3.707402 3.380328 0
M  V30 2 C 0.322165 -3.009520 2.396200 0
M  V30 3 C 0.337611 -3.348173 1.058402 0
M  V30 4 C 1.084411 -2.644873 0.120329 0
M  V30 5 C 1.839959 -1.573149 0.515739 0
M  V30 6 S 2.816736 -0.616891 -0.575506 0
M  V30 7 O 4.012111 -0.046386 0.132646 0
M  V30 8 O 3.335681 -1.467479 -1.685096 0
M  V30 9 N 1.932564 0.696115 -1.228779 0
M  V30 10 C 1.372929 1.737490 -0.453693 0
M  V30 11 C 1.868994 2.966304 -0.033893 0
M  V30 12 C 0.923411 3.634239 0.714252 0
M  V30 13 N -0.114582 2.792211 0.725276 0
M  V30 14 N 0.129237 1.697206 0.057726 0
M  V30 15 C -0.893919 0.708880 -0.012842 0
M  V30 16 C -1.386278 -0.142986 0.962818 0
M  V30 17 C -2.380088 -1.019599 0.670575 0
M  V30 18 C -2.933681 -1.098856 -0.589804 0
M  V30 19 C -2.460480 -0.257511 -1.588209 0
M  V30 20 C -1.437887 0.645698 -1.290748 0
M  V30 21 C 1.795299 -1.267208 1.870821 0
M  V30 22 C 1.078870 -1.922377 2.843640 0
M  V30 23 H -1.423593 -3.489384 3.665255 0
M  V30 24 H 0.269065 -4.430441 3.687065 0
M  V30 25 H -0.268311 -4.207037 0.743604 0
M  V30 26 H 1.092008 -2.915643 -0.926618 0
M  V30 27 H 1.738773 0.827650 -2.254935 0
M  V30 28 H 2.866452 3.302338 -0.287833 0
M  V30 29 H 0.999994 4.607171 1.181924 0
M  V30 30 H -0.870589 0.014396 1.912704 0
M  V30 31 H -2.695880 -1.636913 1.486708 0
M  V30 32 H -3.726921 -1.820094 -0.765254 0
M  V30 33 H -2.944136 -0.385638 -2.531356 0
M  V30 34 H -1.175784 1.230560 -2.162664 0
M  V30 35 H 2.399859 -0.410278 2.184913 0
M  V30 36 H 1.139712 -1.569293 3.871286 0
M  V30 END ATOM
M  V30 BEGIN BOND
M  V30 1 1 1 2
M  V30 2 2 2 3
M  V30 3 1 3 4
M  V30 4 2 4 5
M  V30 5 1 5 6
M  V30 6 2 6 7
M  V30 7 2 6 8
M  V30 8 1 6 9
M  V30 9 1 9 10
M  V30 10 2 10 11
M  V30 11 1 11 12
M  V30 12 2 12 13
M  V30 13 1 13 14
M  V30 14 1 14 15
M  V30 15 2 15 16
M  V30 16 1 16 17
M  V30 17 2 17 18
M  V30 18 1 18 19
M  V30 19 2 19 20
M  V30 20 1 5 21
M  V30 21 2 21 22
M  V30 22 1 22 2
M  V30 23 1 14 10
M  V30 24 1 20 15
M  V30 25 1 1 23
M  V30 26 1 1 24
M  V30 27 1 3 25
M  V30 28 1 4 26
M  V30 29 1 9 27
M  V30 30 1 11 28
M  V30 31 1 12 29
M  V30 32 1 16 30
M  V30 33 1 17 31
M  V30 34 1 18 32
M  V30 35 1 19 33
M  V30 36 1 20 34
M  V30 37 1 21 35
M  V30 38 1 22 36
M  V30 END BOND
M  V30 END CTAB
M  END
>  <Dataset>  (919) 
OralDrugs

>  <Ligand_Instance>  (919) 
nan

>  <PDB_ID>  (919) 
nan

>  <Standardized_SMILES>  (919) 
Nc1ccc(S(=O)(=O)Nc2ccnn2-c2ccccc2)cc1

>  <Name>  (919) 
Sulfaphenazole

>  <Pocket>  (919) 
nan

>  <ATP_Site>  (919) 
nan

>  <Peripheral>  (919) 
nan

>  <Num_H_Atoms_ProtBoundConf>  (919) 
nan

>  <Num_Resolved_Atoms>  (919) 
nan

>  <Num_Not_Resolved_Atoms>  (919) 
nan

$$$$
CHEMBL700
     RDKit          3D

  0  0  0  0  0  0  0  0  0  0999 V3000
M  V30 BEGIN CTAB
M  V30 COUNTS 28 29 0 0 0
M  V30 BEGIN ATOM
M  V30 1 N -0.636336 -4.086960 3.859393 0
M  V30 2 C -0.038536 -2.938030 3.279367 0
M  V30 3 C -0.263197 -1.679977 3.794331 0
M  V30 4 C 0.330858 -0.580504 3.210275 0
M  V30 5 C 1.171954 -0.667635 2.094527 0
M  V30 6 S 1.794077 0.879435 1.568553 0
M  V30 7 O 3.059453 0.686288 0.745074 0
M  V30 8 O 2.162074 1.674869 2.762856 0
M  V30 9 N 0.692571 1.712118 0.541770 0
M  V30 10 C 0.180712 1.335330 -0.717553 0
M  V30 11 C 0.496151 0.178299 -1.385488 0
M  V30 12 C 0.011208 -0.204641 -2.614602 0
M  V30 13 C -0.872020 0.654105 -3.229422 0
M  V30 14 C -1.192162 1.804600 -2.576602 0
M  V30 15 N -0.699316 2.129291 -1.394624 0
M  V30 16 C 1.392794 -1.929144 1.584443 0
M  V30 17 C 0.790526 -3.016361 2.181164 0
M  V30 18 H -0.496854 -5.016761 3.426641 0
M  V30 19 H -0.516176 -5.020206 3.453754 0
M  V30 20 H -0.911396 -1.604845 4.655594 0
M  V30 21 H 0.076246 0.366999 3.709856 0
M  V30 22 H 0.350138 2.647691 0.916264 0
M  V30 23 H 1.182755 -0.508874 -0.934305 0
M  V30 24 H 0.283319 -1.120431 -3.104688 0
M  V30 25 H -1.300129 0.437621 -4.187639 0
M  V30 26 H -1.888843 2.528607 -3.012995 0
M  V30 27 H 2.042959 -1.932932 0.742627 0
M  V30 28 H 1.002776 -3.980938 1.734038 0
M  V30 END ATOM
M  V30 BEGIN BOND
M  V30 1 1 1 2
M  V30 2 2 2 3
M  V30 3 1 3 4
M  V30 4 2 4 5
M  V30 5 1 5 6
M  V30 6 2 6 7
M  V30 7 2 6 8
M  V30 8 1 6 9
M  V30 9 1 9 10
M  V30 10 2 10 11
M  V30 11 1 11 12
M  V30 12 2 12 13
M  V30 13 1 13 14
M  V30 14 2 14 15
M  V30 15 1 5 16
M  V30 16 2 16 17
M  V30 17 1 17 2
M  V30 18 1 15 10
M  V30 19 1 1 18
M  V30 20 1 1 19
M  V30 21 1 3 20
M  V30 22 1 4 21
M  V30 23 1 9 22
M  V30 24 1 11 23
M  V30 25 1 12 24
M  V30 26 1 13 25
M  V30 27 1 14 26
M  V30 28 1 16 27
M  V30 29 1 17 28
M  V30 END BOND
M  V30 END CTAB
M  END
>  <Dataset>  (920) 
OralDrugs

>  <Ligand_Instance>  (920) 
nan

>  <PDB_ID>  (920) 
nan

>  <Standardized_SMILES>  (920) 
Nc1ccc(S(=O)(=O)Nc2ccccn2)cc1

>  <Name>  (920) 
Sulfapyridine

>  <Pocket>  (920) 
nan

>  <ATP_Site>  (920) 
nan

>  <Peripheral>  (920) 
nan

>  <Num_H_Atoms_ProtBoundConf>  (920) 
nan

>  <Num_Resolved_Atoms>  (920) 
nan

>  <Num_Not_Resolved_Atoms>  (920) 
nan

$$$$
CHEMBL421
     RDKit          3D

  0  0  0  0  0  0  0  0  0  0999 V3000
M  V30 BEGIN CTAB
M  V30 COUNTS 42 44 0 0 0
M  V30 BEGIN ATOM
M  V30 1 O -1.468092 -5.419040 -5.867427 0
M  V30 2 C -2.637084 -4.979178 -5.723933 0
M  V30 3 O -3.636801 -5.720166 -6.338299 0
M  V30 4 C -2.967698 -3.771628 -4.968694 0
M  V30 5 C -1.899199 -3.101344 -4.392149 0
M  V30 6 C -2.178320 -1.957116 -3.671976 0
M  V30 7 N -1.239523 -1.110357 -2.995252 0
M  V30 8 N -1.204551 -0.922161 -1.768690 0
M  V30 9 C -0.273355 -0.080846 -1.086813 0
M  V30 10 C -0.053669 1.167007 -1.633929 0
M  V30 11 C 0.845570 2.046299 -1.020238 0
M  V30 12 C 1.539571 1.699742 0.145146 0
M  V30 13 S 2.632840 2.880981 0.813029 0
M  V30 14 O 3.798000 2.206061 1.514358 0
M  V30 15 O 3.242322 3.622667 -0.342925 0
M  V30 16 N 1.897440 3.947234 1.929165 0
M  V30 17 C 1.312746 3.462888 3.129962 0
M  V30 18 C 0.718206 4.318882 4.033716 0
M  V30 19 C 0.127862 3.925380 5.224121 0
M  V30 20 C 0.128493 2.582406 5.539381 0
M  V30 21 C 0.728995 1.747712 4.619513 0
M  V30 22 N 1.301145 2.159684 3.458643 0
M  V30 23 C 1.290429 0.442905 0.658731 0
M  V30 24 C 0.405880 -0.434569 0.063562 0
M  V30 25 C -3.491733 -1.495313 -3.532057 0
M  V30 26 C -4.523883 -2.184947 -4.116842 0
M  V30 27 C -4.265481 -3.324061 -4.836245 0
M  V30 28 O -5.230428 -4.109673 -5.475916 0
M  V30 29 H -3.625569 -6.735123 -6.347666 0
M  V30 30 H -0.858684 -3.369587 -4.438758 0
M  V30 31 H -0.544075 1.516245 -2.528046 0
M  V30 32 H 0.996305 3.032466 -1.483291 0
M  V30 33 H 1.868158 4.972310 1.742716 0
M  V30 34 H 0.703712 5.367767 3.813335 0
M  V30 35 H -0.327888 4.621224 5.907625 0
M  V30 36 H -0.300844 2.158492 6.437552 0
M  V30 37 H 0.747271 0.689197 4.834890 0
M  V30 38 H 1.829176 0.178514 1.558693 0
M  V30 39 H 0.224720 -1.410381 0.478867 0
M  V30 40 H -3.798775 -0.614157 -2.988987 0
M  V30 41 H -5.568989 -1.865852 -4.037449 0
M  V30 42 H -6.063722 -4.344426 -4.960434 0
M  V30 END ATOM
M  V30 BEGIN BOND
M  V30 1 2 1 2
M  V30 2 1 2 3
M  V30 3 1 2 4
M  V30 4 2 4 5
M  V30 5 1 5 6
M  V30 6 1 6 7
M  V30 7 2 7 8
M  V30 8 1 8 9
M  V30 9 2 9 10
M  V30 10 1 10 11
M  V30 11 2 11 12
M  V30 12 1 12 13
M  V30 13 2 13 14
M  V30 14 2 13 15
M  V30 15 1 13 16
M  V30 16 1 16 17
M  V30 17 2 17 18
M  V30 18 1 18 19
M  V30 19 2 19 20
M  V30 20 1 20 21
M  V30 21 2 21 22
M  V30 22 1 12 23
M  V30 23 2 23 24
M  V30 24 2 6 25
M  V30 25 1 25 26
M  V30 26 2 26 27
M  V30 27 1 27 28
M  V30 28 1 27 4
M  V30 29 1 24 9
M  V30 30 1 22 17
M  V30 31 1 3 29
M  V30 32 1 5 30
M  V30 33 1 10 31
M  V30 34 1 11 32
M  V30 35 1 16 33
M  V30 36 1 18 34
M  V30 37 1 19 35
M  V30 38 1 20 36
M  V30 39 1 21 37
M  V30 40 1 23 38
M  V30 41 1 24 39
M  V30 42 1 25 40
M  V30 43 1 26 41
M  V30 44 1 28 42
M  V30 END BOND
M  V30 END CTAB
M  END
>  <Dataset>  (921) 
OralDrugs

>  <Ligand_Instance>  (921) 
nan

>  <PDB_ID>  (921) 
nan

>  <Standardized_SMILES>  (921) 
O=C(O)c1cc(/N=N/c2ccc(S(=O)(=O)Nc3ccccn3)cc2)ccc1O

>  <Name>  (921) 
Sulfasalazine

>  <Pocket>  (921) 
nan

>  <ATP_Site>  (921) 
nan

>  <Peripheral>  (921) 
nan

>  <Num_H_Atoms_ProtBoundConf>  (921) 
nan

>  <Num_Resolved_Atoms>  (921) 
nan

>  <Num_Not_Resolved_Atoms>  (921) 
nan

$$$$
CHEMBL832
     RDKit          3D

  0  0  0  0  0  0  0  0  0  0999 V3000
M  V30 BEGIN CTAB
M  V30 COUNTS 49 52 0 0 0
M  V30 BEGIN ATOM
M  V30 1 O 0.194722 -2.426624 3.389049 0
M  V30 2 C -0.273795 -1.731725 2.421148 0
M  V30 3 C -0.135953 -0.245546 2.144053 0
M  V30 4 C 0.838507 0.391348 3.033853 0
M  V30 5 C 0.947262 1.859710 2.893108 0
M  V30 6 S 1.307439 2.603674 1.393909 0 CHG=1 VAL=3
M  V30 7 O 0.286938 2.412707 0.133428 0 CHG=-1 VAL=1
M  V30 8 C 2.952725 2.915705 1.028428 0
M  V30 9 C 3.854788 2.117968 0.393609 0
M  V30 10 C 5.167332 2.546825 0.182598 0
M  V30 11 C 5.588397 3.789695 0.610451 0
M  V30 12 C 4.690743 4.614357 1.255989 0
M  V30 13 C 3.388185 4.174831 1.459147 0
M  V30 14 C 0.413066 -0.435865 0.734602 0
M  V30 15 O 1.199734 -0.309355 -0.279952 0
M  V30 16 N -0.621523 -1.333848 0.240630 0
M  V30 17 C -1.308947 -1.612785 -1.012226 0
M  V30 18 C -0.703552 -2.582683 -1.814816 0
M  V30 19 C -1.277546 -2.931373 -3.042450 0
M  V30 20 C -2.440322 -2.286105 -3.410056 0
M  V30 21 C -3.044507 -1.325632 -2.620807 0
M  V30 22 C -2.481571 -0.972609 -1.399500 0
M  V30 23 N -1.079742 -2.176895 1.302067 0
M  V30 24 C -2.049935 -3.238051 1.449218 0
M  V30 25 C -3.390418 -3.051347 1.802279 0
M  V30 26 C -4.211076 -4.148034 1.908713 0
M  V30 27 C -3.708916 -5.421176 1.667444 0
M  V30 28 C -2.386154 -5.570971 1.322171 0
M  V30 29 C -1.524129 -4.498195 1.203197 0
M  V30 30 H -1.093107 0.196235 2.122992 0
M  V30 31 H 1.839132 -0.118923 3.049138 0
M  V30 32 H 0.469408 0.201090 4.098430 0
M  V30 33 H -0.002848 2.368552 3.300924 0
M  V30 34 H 1.713163 2.274743 3.649311 0
M  V30 35 H 3.484639 1.171335 0.083015 0
M  V30 36 H 5.860860 1.887695 -0.326012 0
M  V30 37 H 6.623040 4.127380 0.443948 0
M  V30 38 H 5.036274 5.583174 1.584186 0
M  V30 39 H 2.765990 4.912428 1.981017 0
M  V30 40 H 0.208730 -3.075367 -1.505110 0
M  V30 41 H -0.793780 -3.684967 -3.650170 0
M  V30 42 H -2.918888 -2.533754 -4.366066 0
M  V30 43 H -3.955262 -0.822052 -2.911612 0
M  V30 44 H -2.881474 -0.232191 -0.712964 0
M  V30 45 H -3.681655 -2.010712 1.969586 0
M  V30 46 H -5.254502 -3.961312 2.187284 0
M  V30 47 H -4.415648 -6.238472 1.770618 0
M  V30 48 H -2.101812 -6.605891 1.157108 0
M  V30 49 H -0.501112 -4.674439 0.930696 0
M  V30 END ATOM
M  V30 BEGIN BOND
M  V30 1 2 1 2
M  V30 2 1 2 3
M  V30 3 1 3 4
M  V30 4 1 4 5
M  V30 5 1 5 6
M  V30 6 1 6 7
M  V30 7 1 6 8
M  V30 8 2 8 9
M  V30 9 1 9 10
M  V30 10 2 10 11
M  V30 11 1 11 12
M  V30 12 2 12 13
M  V30 13 1 3 14
M  V30 14 2 14 15
M  V30 15 1 14 16
M  V30 16 1 16 17
M  V30 17 2 17 18
M  V30 18 1 18 19
M  V30 19 2 19 20
M  V30 20 1 20 21
M  V30 21 2 21 22
M  V30 22 1 16 23
M  V30 23 1 23 24
M  V30 24 2 24 25
M  V30 25 1 25 26
M  V30 26 2 26 27
M  V30 27 1 27 28
M  V30 28 2 28 29
M  V30 29 1 23 2
M  V30 30 1 29 24
M  V30 31 1 13 8
M  V30 32 1 22 17
M  V30 33 1 3 30
M  V30 34 1 4 31
M  V30 35 1 4 32
M  V30 36 1 5 33
M  V30 37 1 5 34
M  V30 38 1 9 35
M  V30 39 1 10 36
M  V30 40 1 11 37
M  V30 41 1 12 38
M  V30 42 1 13 39
M  V30 43 1 18 40
M  V30 44 1 19 41
M  V30 45 1 20 42
M  V30 46 1 21 43
M  V30 47 1 22 44
M  V30 48 1 25 45
M  V30 49 1 26 46
M  V30 50 1 27 47
M  V30 51 1 28 48
M  V30 52 1 29 49
M  V30 END BOND
M  V30 END CTAB
M  END
>  <Dataset>  (922) 
OralDrugs

>  <Ligand_Instance>  (922) 
nan

>  <PDB_ID>  (922) 
nan

>  <Standardized_SMILES>  (922) 
O=C1C(CC[S+]([O-])c2ccccc2)C(=O)N(c2ccccc2)N1c1ccccc1

>  <Name>  (922) 
Sulfinpyrazone

>  <Pocket>  (922) 
nan

>  <ATP_Site>  (922) 
nan

>  <Peripheral>  (922) 
nan

>  <Num_H_Atoms_ProtBoundConf>  (922) 
nan

>  <Num_Resolved_Atoms>  (922) 
nan

>  <Num_Not_Resolved_Atoms>  (922) 
nan

$$$$
CHEMBL453
     RDKit          3D

  0  0  0  0  0  0  0  0  0  0999 V3000
M  V30 BEGIN CTAB
M  V30 COUNTS 31 32 0 0 0
M  V30 BEGIN ATOM
M  V30 1 C -1.543535 -2.725847 4.496548 0
M  V30 2 C -0.644784 -2.097982 3.494597 0
M  V30 3 N -0.316148 -0.794578 3.377494 0
M  V30 4 O 0.496256 -0.659081 2.371371 0
M  V30 5 C 0.747431 -1.793700 1.787145 0
M  V30 6 N 1.582519 -2.028097 0.666147 0
M  V30 7 S 2.404621 -0.707394 -0.077274 0
M  V30 8 O 3.278862 -1.210243 -1.202694 0
M  V30 9 O 3.270948 -0.009813 0.947659 0
M  V30 10 C 1.290206 0.472984 -0.711803 0
M  V30 11 C 0.863799 1.518558 0.063214 0
M  V30 12 C -0.016882 2.388161 -0.545796 0
M  V30 13 C -0.495090 2.299838 -1.836709 0
M  V30 14 N -1.400126 3.241445 -2.380442 0
M  V30 15 C -0.007039 1.204174 -2.550680 0
M  V30 16 C 0.874804 0.279912 -2.032543 0
M  V30 17 C 0.031724 -2.775052 2.473393 0
M  V30 18 C 0.026233 -4.201891 2.149230 0
M  V30 19 H -1.718823 -3.773516 4.222188 0
M  V30 20 H -1.109317 -2.640953 5.506439 0
M  V30 21 H -2.523047 -2.206309 4.452153 0
M  V30 22 H 1.704629 -2.991462 0.286560 0
M  V30 23 H 1.183349 1.670289 1.084133 0
M  V30 24 H -0.377449 3.230922 0.038662 0
M  V30 25 H -1.146855 3.645938 -3.303069 0
M  V30 26 H -2.202716 3.349708 -1.693302 0
M  V30 27 H -0.337135 1.068055 -3.570578 0
M  V30 28 H 1.220850 -0.557589 -2.642682 0
M  V30 29 H -0.149817 -4.301693 1.038103 0
M  V30 30 H 0.990957 -4.689221 2.386233 0
M  V30 31 H -0.823785 -4.729876 2.621764 0
M  V30 END ATOM
M  V30 BEGIN BOND
M  V30 1 1 1 2
M  V30 2 2 2 3
M  V30 3 1 3 4
M  V30 4 1 4 5
M  V30 5 1 5 6
M  V30 6 1 6 7
M  V30 7 2 7 8
M  V30 8 2 7 9
M  V30 9 1 7 10
M  V30 10 2 10 11
M  V30 11 1 11 12
M  V30 12 2 12 13
M  V30 13 1 13 14
M  V30 14 1 13 15
M  V30 15 2 15 16
M  V30 16 2 5 17
M  V30 17 1 17 18
M  V30 18 1 17 2
M  V30 19 1 16 10
M  V30 20 1 1 19
M  V30 21 1 1 20
M  V30 22 1 1 21
M  V30 23 1 6 22
M  V30 24 1 11 23
M  V30 25 1 12 24
M  V30 26 1 14 25
M  V30 27 1 14 26
M  V30 28 1 15 27
M  V30 29 1 16 28
M  V30 30 1 18 29
M  V30 31 1 18 30
M  V30 32 1 18 31
M  V30 END BOND
M  V30 END CTAB
M  END
>  <Dataset>  (923) 
OralDrugs

>  <Ligand_Instance>  (923) 
nan

>  <PDB_ID>  (923) 
nan

>  <Standardized_SMILES>  (923) 
Cc1noc(NS(=O)(=O)c2ccc(N)cc2)c1C

>  <Name>  (923) 
Sulfisoxazole

>  <Pocket>  (923) 
nan

>  <ATP_Site>  (923) 
nan

>  <Peripheral>  (923) 
nan

>  <Num_H_Atoms_ProtBoundConf>  (923) 
nan

>  <Num_Resolved_Atoms>  (923) 
nan

>  <Num_Not_Resolved_Atoms>  (923) 
nan

$$$$
CHEMBL1570
     RDKit          3D

  0  0  0  0  0  0  0  0  0  0999 V3000
M  V30 BEGIN CTAB
M  V30 COUNTS 41 42 0 0 0
M  V30 BEGIN ATOM
M  V30 1 O 4.117507 -7.572007 2.916013 0
M  V30 2 S 3.286415 -7.069923 1.761964 0
M  V30 3 O 3.560903 -7.917468 0.330199 0
M  V30 4 C 3.406426 -5.296833 1.545917 0
M  V30 5 N 2.402944 -4.918849 0.567865 0
M  V30 6 C 2.206617 -3.584292 0.145704 0
M  V30 7 C 1.275337 -3.154500 -0.776394 0
M  V30 8 C 1.184573 -1.800201 -1.106558 0
M  V30 9 C 2.013662 -0.859613 -0.527918 0
M  V30 10 S 1.771278 0.785291 -1.048522 0
M  V30 11 O 1.285153 0.830294 -2.467028 0
M  V30 12 O 3.083951 1.500898 -0.914270 0
M  V30 13 C 0.602617 1.637943 -0.061333 0
M  V30 14 C -0.740847 1.576566 -0.456490 0
M  V30 15 C -1.794118 2.202085 0.223198 0
M  V30 16 C -1.450799 2.919111 1.354352 0
M  V30 17 N -2.507370 3.575581 2.078699 0
M  V30 18 C -3.848982 3.425921 1.554257 0
M  V30 19 S -5.059167 4.295145 2.555788 0
M  V30 20 O -6.466527 3.991692 2.064678 0
M  V30 21 O -4.968491 3.611340 4.133862 0
M  V30 22 C -0.134022 2.997453 1.768365 0
M  V30 23 C 0.889138 2.367933 1.075971 0
M  V30 24 C 2.954479 -1.263397 0.398052 0
M  V30 25 C 3.019646 -2.609031 0.703450 0
M  V30 26 H 2.785018 -8.541683 0.198270 0
M  V30 27 H 4.422706 -4.972159 1.248216 0
M  V30 28 H 3.171528 -4.822804 2.516927 0
M  V30 29 H 1.747763 -5.613498 0.101656 0
M  V30 30 H 0.643761 -3.914429 -1.209246 0
M  V30 31 H 0.412637 -1.603626 -1.841638 0
M  V30 32 H -1.001026 1.005445 -1.354462 0
M  V30 33 H -2.793401 2.090741 -0.167222 0
M  V30 34 H -2.332754 4.129018 2.931263 0
M  V30 35 H -3.867271 3.916704 0.538559 0
M  V30 36 H -4.132144 2.374237 1.411274 0
M  V30 37 H -4.978250 2.621253 4.080970 0
M  V30 38 H 0.114003 3.563293 2.655803 0
M  V30 39 H 1.923078 2.405403 1.365746 0
M  V30 40 H 3.579425 -0.517048 0.827368 0
M  V30 41 H 3.767440 -2.888037 1.431780 0
M  V30 END ATOM
M  V30 BEGIN BOND
M  V30 1 2 1 2
M  V30 2 1 2 3
M  V30 3 1 2 4
M  V30 4 1 4 5
M  V30 5 1 5 6
M  V30 6 2 6 7
M  V30 7 1 7 8
M  V30 8 2 8 9
M  V30 9 1 9 10
M  V30 10 2 10 11
M  V30 11 2 10 12
M  V30 12 1 10 13
M  V30 13 2 13 14
M  V30 14 1 14 15
M  V30 15 2 15 16
M  V30 16 1 16 17
M  V30 17 1 17 18
M  V30 18 1 18 19
M  V30 19 2 19 20
M  V30 20 1 19 21
M  V30 21 1 16 22
M  V30 22 2 22 23
M  V30 23 1 9 24
M  V30 24 2 24 25
M  V30 25 1 25 6
M  V30 26 1 23 13
M  V30 27 1 3 26
M  V30 28 1 4 27
M  V30 29 1 4 28
M  V30 30 1 5 29
M  V30 31 1 7 30
M  V30 32 1 8 31
M  V30 33 1 14 32
M  V30 34 1 15 33
M  V30 35 1 17 34
M  V30 36 1 18 35
M  V30 37 1 18 36
M  V30 38 1 21 37
M  V30 39 1 22 38
M  V30 40 1 23 39
M  V30 41 1 24 40
M  V30 42 1 25 41
M  V30 END BOND
M  V30 END CTAB
M  END
>  <Dataset>  (924) 
OralDrugs

>  <Ligand_Instance>  (924) 
nan

>  <PDB_ID>  (924) 
nan

>  <Standardized_SMILES>  (924) 
O=S(O)CNc1ccc(S(=O)(=O)c2ccc(NCS(=O)O)cc2)cc1

>  <Name>  (924) 
Sulfoxone

>  <Pocket>  (924) 
nan

>  <ATP_Site>  (924) 
nan

>  <Peripheral>  (924) 
nan

>  <Num_H_Atoms_ProtBoundConf>  (924) 
nan

>  <Num_Resolved_Atoms>  (924) 
nan

>  <Num_Not_Resolved_Atoms>  (924) 
nan

$$$$
CHEMBL26
     RDKit          3D

  0  0  0  0  0  0  0  0  0  0999 V3000
M  V30 BEGIN CTAB
M  V30 COUNTS 46 47 0 0 0
M  V30 BEGIN ATOM
M  V30 1 C 0.494998 -4.990131 0.046618 0
M  V30 2 C 1.164911 -3.933609 -0.796442 0
M  V30 3 N 0.181068 -3.011865 -1.289637 0
M  V30 4 C -0.711687 -3.627107 -2.257648 0
M  V30 5 C -1.032706 -2.554025 -3.284123 0
M  V30 6 C -0.598820 -1.307839 -2.507426 0
M  V30 7 C 0.724822 -1.901199 -1.998838 0
M  V30 8 C 1.497301 -0.931495 -1.157449 0
M  V30 9 N 0.712136 -0.344047 -0.114988 0
M  V30 10 C 1.222730 0.597162 0.809869 0
M  V30 11 O 2.426550 0.810870 0.562463 0
M  V30 12 C 0.522179 1.251934 1.897390 0
M  V30 13 C 1.287520 2.135223 2.648852 0
M  V30 14 C 0.790533 2.839563 3.711664 0
M  V30 15 S 1.820346 3.932078 4.608488 0
M  V30 16 N 2.600843 3.109758 5.920300 0
M  V30 17 O 2.778375 4.662799 3.740366 0
M  V30 18 O 0.931335 4.973683 5.272399 0
M  V30 19 C -0.524695 2.706042 4.100759 0
M  V30 20 C -1.285004 1.833473 3.360414 0
M  V30 21 C -0.782808 1.128184 2.294171 0
M  V30 22 O -1.565541 0.262222 1.570932 0
M  V30 23 C -2.920866 -0.025631 1.789234 0
M  V30 24 H -0.325254 -4.521635 0.637295 0
M  V30 25 H 1.200763 -5.474826 0.770275 0
M  V30 26 H 0.066553 -5.792005 -0.566565 0
M  V30 27 H 1.730712 -4.381233 -1.626632 0
M  V30 28 H 1.831943 -3.359553 -0.109701 0
M  V30 29 H -1.664210 -3.981665 -1.802796 0
M  V30 30 H -0.171679 -4.444137 -2.753405 0
M  V30 31 H -2.087103 -2.526967 -3.578213 0
M  V30 32 H -0.312454 -2.647378 -4.122827 0
M  V30 33 H -0.468820 -0.435377 -3.134305 0
M  V30 34 H -1.331510 -1.223078 -1.682231 0
M  V30 35 H 1.328973 -2.177874 -2.860330 0
M  V30 36 H 2.339092 -1.483499 -0.723518 0
M  V30 37 H 1.919491 -0.170899 -1.849533 0
M  V30 38 H -0.286335 -0.625109 -0.035699 0
M  V30 39 H 2.335744 2.306815 2.416992 0
M  V30 40 H 3.548546 3.438268 6.120902 0
M  V30 41 H 2.606392 2.092342 5.777866 0
M  V30 42 H -0.877491 3.279852 4.945161 0
M  V30 43 H -2.312914 1.737245 3.673695 0
M  V30 44 H -3.240527 0.145022 2.835576 0
M  V30 45 H -3.492024 0.657946 1.101089 0
M  V30 46 H -3.183113 -1.074768 1.527437 0
M  V30 END ATOM
M  V30 BEGIN BOND
M  V30 1 1 1 2
M  V30 2 1 2 3
M  V30 3 1 3 4
M  V30 4 1 4 5
M  V30 5 1 5 6
M  V30 6 1 6 7
M  V30 7 1 7 8
M  V30 8 1 8 9
M  V30 9 1 9 10
M  V30 10 2 10 11
M  V30 11 1 10 12
M  V30 12 2 12 13
M  V30 13 1 13 14
M  V30 14 1 14 15
M  V30 15 1 15 16
M  V30 16 2 15 17
M  V30 17 2 15 18
M  V30 18 2 14 19
M  V30 19 1 19 20
M  V30 20 2 20 21
M  V30 21 1 21 22
M  V30 22 1 22 23
M  V30 23 1 7 3
M  V30 24 1 21 12
M  V30 25 1 1 24
M  V30 26 1 1 25
M  V30 27 1 1 26
M  V30 28 1 2 27
M  V30 29 1 2 28
M  V30 30 1 4 29
M  V30 31 1 4 30
M  V30 32 1 5 31
M  V30 33 1 5 32
M  V30 34 1 6 33
M  V30 35 1 6 34
M  V30 36 1 7 35
M  V30 37 1 8 36
M  V30 38 1 8 37
M  V30 39 1 9 38
M  V30 40 1 13 39
M  V30 41 1 16 40
M  V30 42 1 16 41
M  V30 43 1 19 42
M  V30 44 1 20 43
M  V30 45 1 23 44
M  V30 46 1 23 45
M  V30 47 1 23 46
M  V30 END BOND
M  V30 END CTAB
M  END
>  <Dataset>  (925) 
OralDrugs

>  <Ligand_Instance>  (925) 
nan

>  <PDB_ID>  (925) 
nan

>  <Standardized_SMILES>  (925) 
CCN1CCCC1CNC(=O)c1cc(S(N)(=O)=O)ccc1OC

>  <Name>  (925) 
Sulpiride

>  <Pocket>  (925) 
nan

>  <ATP_Site>  (925) 
nan

>  <Peripheral>  (925) 
nan

>  <Num_H_Atoms_ProtBoundConf>  (925) 
nan

>  <Num_Resolved_Atoms>  (925) 
nan

>  <Num_Not_Resolved_Atoms>  (925) 
nan

$$$$
CHEMBL128
     RDKit          3D

  0  0  0  0  0  0  0  0  0  0999 V3000
M  V30 BEGIN CTAB
M  V30 COUNTS 41 42 0 0 0
M  V30 BEGIN ATOM
M  V30 1 C -0.583475 -2.094376 3.853555 0
M  V30 2 N 0.632392 -2.637110 3.345594 0
M  V30 3 S 0.492420 -4.113091 2.509061 0
M  V30 4 O 1.823495 -4.702641 2.217372 0
M  V30 5 O -0.215357 -5.081696 3.447321 0
M  V30 6 C -0.526169 -3.998213 1.061881 0
M  V30 7 C -0.007970 -3.018065 0.085459 0
M  V30 8 C 0.899585 -3.373675 -0.908992 0
M  V30 9 C 1.376392 -2.446883 -1.822475 0
M  V30 10 C 0.931374 -1.145171 -1.730418 0
M  V30 11 N 1.270370 -0.110877 -2.515008 0
M  V30 12 C 0.580298 0.957096 -2.041739 0
M  V30 13 C -0.203880 0.585665 -0.942399 0
M  V30 14 C -1.077687 1.476317 -0.181175 0
M  V30 15 C -0.547911 1.949733 1.140496 0
M  V30 16 N 0.651907 2.696725 1.104738 0
M  V30 17 C 1.857670 2.049760 0.757947 0
M  V30 18 C 0.869069 3.616194 2.189541 0
M  V30 19 C 0.023306 -0.781705 -0.737766 0
M  V30 20 C -0.445174 -1.691817 0.159674 0
M  V30 21 H -0.492448 -0.982763 3.792769 0
M  V30 22 H -0.702282 -2.452077 4.895651 0
M  V30 23 H -1.433866 -2.454382 3.255855 0
M  V30 24 H 1.440744 -2.554854 3.959905 0
M  V30 25 H -1.542932 -3.679431 1.381417 0
M  V30 26 H -0.586421 -5.019995 0.641584 0
M  V30 27 H 1.205255 -4.420884 -0.918031 0
M  V30 28 H 2.081074 -2.767051 -2.579724 0
M  V30 29 H 1.922965 -0.098957 -3.325478 0
M  V30 30 H 0.606217 1.974192 -2.434679 0
M  V30 31 H -1.266952 2.396106 -0.782457 0
M  V30 32 H -2.081895 1.031419 0.018772 0
M  V30 33 H -0.543119 1.121300 1.893757 0
M  V30 34 H -1.346152 2.646903 1.542284 0
M  V30 35 H 2.695227 2.233096 1.477426 0
M  V30 36 H 1.842347 0.978003 0.589625 0
M  V30 37 H 2.224734 2.500241 -0.210880 0
M  V30 38 H 0.093727 3.584843 2.982168 0
M  V30 39 H 1.852655 3.456632 2.716512 0
M  V30 40 H 0.935121 4.648382 1.747965 0
M  V30 41 H -1.151819 -1.372940 0.917971 0
M  V30 END ATOM
M  V30 BEGIN BOND
M  V30 1 1 1 2
M  V30 2 1 2 3
M  V30 3 2 3 4
M  V30 4 2 3 5
M  V30 5 1 3 6
M  V30 6 1 6 7
M  V30 7 2 7 8
M  V30 8 1 8 9
M  V30 9 2 9 10
M  V30 10 1 10 11
M  V30 11 1 11 12
M  V30 12 2 12 13
M  V30 13 1 13 14
M  V30 14 1 14 15
M  V30 15 1 15 16
M  V30 16 1 16 17
M  V30 17 1 16 18
M  V30 18 1 13 19
M  V30 19 2 19 20
M  V30 20 1 20 7
M  V30 21 1 19 10
M  V30 22 1 1 21
M  V30 23 1 1 22
M  V30 24 1 1 23
M  V30 25 1 2 24
M  V30 26 1 6 25
M  V30 27 1 6 26
M  V30 28 1 8 27
M  V30 29 1 9 28
M  V30 30 1 11 29
M  V30 31 1 12 30
M  V30 32 1 14 31
M  V30 33 1 14 32
M  V30 34 1 15 33
M  V30 35 1 15 34
M  V30 36 1 17 35
M  V30 37 1 17 36
M  V30 38 1 17 37
M  V30 39 1 18 38
M  V30 40 1 18 39
M  V30 41 1 18 40
M  V30 42 1 20 41
M  V30 END BOND
M  V30 END CTAB
M  END
>  <Dataset>  (926) 
OralDrugs

>  <Ligand_Instance>  (926) 
nan

>  <PDB_ID>  (926) 
nan

>  <Standardized_SMILES>  (926) 
CNS(=O)(=O)Cc1ccc2[nH]cc(CCN(C)C)c2c1

>  <Name>  (926) 
Sumatriptan

>  <Pocket>  (926) 
nan

>  <ATP_Site>  (926) 
nan

>  <Peripheral>  (926) 
nan

>  <Num_H_Atoms_ProtBoundConf>  (926) 
nan

>  <Num_Resolved_Atoms>  (926) 
nan

>  <Num_Not_Resolved_Atoms>  (926) 
nan

$$$$
CHEMBL535
     RDKit          3D

  0  0  0  0  0  0  0  0  0  0999 V3000
M  V30 BEGIN CTAB
M  V30 COUNTS 56 58 0 0 0
M  V30 BEGIN ATOM
M  V30 1 C 2.819446 0.374778 4.971716 0
M  V30 2 C 2.640093 0.780034 3.513621 0
M  V30 3 N 3.865800 1.015794 2.867150 0
M  V30 4 C 4.629628 2.151777 3.230041 0
M  V30 5 C 5.217769 2.108063 4.585875 0
M  V30 6 C 4.341044 0.196699 1.868749 0
M  V30 7 C 3.871733 0.101867 0.490654 0
M  V30 8 N 2.508362 -0.181275 0.231215 0
M  V30 9 C 1.232254 0.418191 0.364595 0
M  V30 10 O 1.351042 1.598815 0.855397 0
M  V30 11 C -0.100485 -0.059619 0.053664 0
M  V30 12 C -1.184482 0.782801 0.276167 0
M  V30 13 C -1.266369 2.181092 0.802089 0
M  V30 14 N -2.266615 0.067847 -0.097260 0
M  V30 15 C -1.992582 -1.164012 -0.544531 0
M  V30 16 C -2.816105 -2.246328 -1.055383 0
M  V30 17 C -3.753825 -2.248938 -1.972174 0
M  V30 18 C -4.184327 -1.102674 -2.715419 0
M  V30 19 O -3.701700 0.047336 -2.597691 0
M  V30 20 N -5.213084 -1.525838 -3.564531 0
M  V30 21 C -5.417314 -2.923240 -3.349811 0
M  V30 22 C -6.316626 -3.779416 -3.949030 0
M  V30 23 C -6.325220 -5.124394 -3.562374 0
M  V30 24 C -5.460529 -5.591454 -2.608293 0
M  V30 25 F -5.468386 -6.896348 -2.233550 0
M  V30 26 C -4.545040 -4.725671 -1.996635 0
M  V30 27 C -4.552680 -3.406972 -2.390560 0
M  V30 28 C -0.598319 -1.245267 -0.446888 0
M  V30 29 C 0.238850 -2.385109 -0.812103 0
M  V30 30 H 3.854100 0.035937 5.146879 0
M  V30 31 H 2.187300 -0.522715 5.210564 0
M  V30 32 H 2.466620 1.147829 5.682311 0
M  V30 33 H 2.145281 -0.084796 3.026704 0
M  V30 34 H 1.898787 1.613296 3.510960 0
M  V30 35 H 4.057458 3.100144 3.142887 0
M  V30 36 H 5.478081 2.232857 2.499283 0
M  V30 37 H 5.879946 1.237048 4.803569 0
M  V30 38 H 4.540649 2.288696 5.431610 0
M  V30 39 H 5.942874 2.985358 4.640249 0
M  V30 40 H 4.291612 -0.882291 2.285549 0
M  V30 41 H 5.490568 0.323199 1.864737 0
M  V30 42 H 4.182629 1.007661 -0.135115 0
M  V30 43 H 4.476420 -0.711920 -0.022807 0
M  V30 44 H 2.292727 -1.118909 -0.191624 0
M  V30 45 H -2.269139 2.596889 0.618125 0
M  V30 46 H -1.010815 2.111029 1.876367 0
M  V30 47 H -0.545689 2.830689 0.275035 0
M  V30 48 H -3.255155 0.449475 -0.025132 0
M  V30 49 H -2.597971 -3.215205 -0.575604 0
M  V30 50 H -5.695464 -0.858254 -4.216467 0
M  V30 51 H -7.009134 -3.435056 -4.703989 0
M  V30 52 H -7.042377 -5.756228 -4.055492 0
M  V30 53 H -3.870966 -5.106365 -1.247282 0
M  V30 54 H 0.751947 -2.898701 0.007096 0
M  V30 55 H 0.887899 -2.203882 -1.723877 0
M  V30 56 H -0.457014 -3.190187 -1.216389 0
M  V30 END ATOM
M  V30 BEGIN BOND
M  V30 1 1 1 2
M  V30 2 1 2 3
M  V30 3 1 3 4
M  V30 4 1 4 5
M  V30 5 1 3 6
M  V30 6 1 6 7
M  V30 7 1 7 8
M  V30 8 1 8 9
M  V30 9 2 9 10
M  V30 10 1 9 11
M  V30 11 2 11 12
M  V30 12 1 12 13
M  V30 13 1 12 14
M  V30 14 1 14 15
M  V30 15 1 15 16
M  V30 16 2 16 17
M  V30 17 1 17 18
M  V30 18 2 18 19
M  V30 19 1 18 20
M  V30 20 1 20 21
M  V30 21 2 21 22
M  V30 22 1 22 23
M  V30 23 2 23 24
M  V30 24 1 24 25
M  V30 25 1 24 26
M  V30 26 2 26 27
M  V30 27 2 15 28
M  V30 28 1 28 29
M  V30 29 1 28 11
M  V30 30 1 27 17
M  V30 31 1 27 21
M  V30 32 1 1 30
M  V30 33 1 1 31
M  V30 34 1 1 32
M  V30 35 1 2 33
M  V30 36 1 2 34
M  V30 37 1 4 35
M  V30 38 1 4 36
M  V30 39 1 5 37
M  V30 40 1 5 38
M  V30 41 1 5 39
M  V30 42 1 6 40
M  V30 43 1 6 41
M  V30 44 1 7 42
M  V30 45 1 7 43
M  V30 46 1 8 44
M  V30 47 1 13 45
M  V30 48 1 13 46
M  V30 49 1 13 47
M  V30 50 1 14 48
M  V30 51 1 16 49
M  V30 52 1 20 50
M  V30 53 1 22 51
M  V30 54 1 23 52
M  V30 55 1 26 53
M  V30 56 1 29 54
M  V30 57 1 29 55
M  V30 58 1 29 56
M  V30 END BOND
M  V30 END CTAB
M  END
>  <Dataset>  (927) 
OralDrugs

>  <Ligand_Instance>  (927) 
nan

>  <PDB_ID>  (927) 
nan

>  <Standardized_SMILES>  (927) 
CCN(CC)CCNC(=O)c1c(C)[nH]c(/C=C2\C(=O)Nc3ccc(F)cc32)c1C

>  <Name>  (927) 
Sunitinib

>  <Pocket>  (927) 
nan

>  <ATP_Site>  (927) 
nan

>  <Peripheral>  (927) 
nan

>  <Num_H_Atoms_ProtBoundConf>  (927) 
nan

>  <Num_Resolved_Atoms>  (927) 
nan

>  <Num_Not_Resolved_Atoms>  (927) 
nan

$$$$
CHEMBL1083659
     RDKit          3D

  0  0  0  0  0  0  0  0  0  0999 V3000
M  V30 BEGIN CTAB
M  V30 COUNTS 55 59 0 0 0
M  V30 BEGIN ATOM
M  V30 1 C 0.612276 2.087959 5.214046 0
M  V30 2 C 1.528993 1.653095 4.130738 0
M  V30 3 C 2.873723 1.549827 4.437888 0
M  V30 4 C 3.741506 1.148123 3.445512 0
M  V30 5 C 3.318900 0.847934 2.166319 0
M  V30 6 N 4.193145 0.433670 1.120693 0
M  V30 7 N 4.836295 1.470899 0.567300 0
M  V30 8 C 5.644617 0.994019 -0.416953 0
M  V30 9 C 5.474924 -0.391265 -0.450595 0
M  V30 10 N 4.576888 -0.685863 0.509179 0
M  V30 11 C 1.970915 0.943840 1.830989 0
M  V30 12 C 1.474302 0.633348 0.496448 0
M  V30 13 O 1.625953 1.797673 0.042339 0
M  V30 14 N 0.985446 -0.553803 -0.108044 0
M  V30 15 C 0.885048 -1.829289 0.616694 0
M  V30 16 C -0.343628 -2.590157 0.178272 0
M  V30 17 N -1.447638 -1.696197 -0.096484 0
M  V30 18 C -2.734856 -2.258983 -0.321209 0
M  V30 19 N -3.260756 -2.572629 -1.540018 0
M  V30 20 C -4.502012 -3.085587 -1.374719 0
M  V30 21 C -5.500309 -3.569669 -2.219971 0
M  V30 22 C -6.661631 -4.015663 -1.625231 0
M  V30 23 Cl -7.959943 -4.639244 -2.650130 0
M  V30 24 C -6.912550 -4.021936 -0.280714 0
M  V30 25 C -5.899078 -3.534460 0.523519 0
M  V30 26 C -4.707168 -3.069056 0.009535 0
M  V30 27 O -3.636901 -2.572436 0.593551 0
M  V30 28 C -1.455897 -0.242688 -0.190984 0
M  V30 29 C -0.789885 0.224507 -1.467882 0
M  V30 30 C 0.614555 -0.330360 -1.480615 0 CFG=1
M  V30 31 C 1.584170 0.487720 -2.270590 0
M  V30 32 C 1.113972 1.351917 2.851343 0
M  V30 33 H 0.466075 1.291219 5.981361 0
M  V30 34 H -0.360506 2.408104 4.789542 0
M  V30 35 H 1.019874 2.976272 5.769329 0
M  V30 36 H 3.212939 1.783279 5.444248 0
M  V30 37 H 4.800286 1.067140 3.687127 0
M  V30 38 H 6.354050 1.353753 -1.155734 0
M  V30 39 H 5.868289 -1.229794 -1.026311 0
M  V30 40 H 0.924318 -1.687202 1.714658 0
M  V30 41 H 1.771236 -2.421741 0.313853 0
M  V30 42 H -0.585949 -3.317803 0.980671 0
M  V30 43 H -0.071011 -3.177817 -0.720774 0
M  V30 44 H -5.321165 -3.573010 -3.291881 0
M  V30 45 H -7.836078 -4.381411 0.130486 0
M  V30 46 H -6.012507 -3.504123 1.586632 0
M  V30 47 H -2.487026 0.150667 -0.187933 0
M  V30 48 H -0.946704 0.129686 0.709286 0
M  V30 49 H -1.339428 -0.174519 -2.339118 0
M  V30 50 H -0.831448 1.319140 -1.543582 0
M  V30 51 H 0.557337 -1.327375 -2.009841 0
M  V30 52 H 1.450871 0.204834 -3.357902 0
M  V30 53 H 1.407222 1.577274 -2.256498 0
M  V30 54 H 2.610243 0.186334 -1.988054 0
M  V30 55 H 0.050792 1.440910 2.637459 0
M  V30 END ATOM
M  V30 BEGIN BOND
M  V30 1 1 1 2
M  V30 2 2 2 3
M  V30 3 1 3 4
M  V30 4 2 4 5
M  V30 5 1 5 6
M  V30 6 1 6 7
M  V30 7 2 7 8
M  V30 8 1 8 9
M  V30 9 2 9 10
M  V30 10 1 5 11
M  V30 11 1 11 12
M  V30 12 2 12 13
M  V30 13 1 12 14
M  V30 14 1 14 15
M  V30 15 1 15 16
M  V30 16 1 16 17
M  V30 17 1 17 18
M  V30 18 2 18 19
M  V30 19 1 19 20
M  V30 20 2 20 21
M  V30 21 1 21 22
M  V30 22 1 22 23
M  V30 23 2 22 24
M  V30 24 1 24 25
M  V30 25 2 25 26
M  V30 26 1 26 27
M  V30 27 1 17 28
M  V30 28 1 28 29
M  V30 29 1 29 30
M  V30 30 1 30 31
M  V30 31 2 11 32
M  V30 32 1 32 2
M  V30 33 1 10 6
M  V30 34 1 30 14
M  V30 35 1 27 18
M  V30 36 1 26 20
M  V30 37 1 1 33
M  V30 38 1 1 34
M  V30 39 1 1 35
M  V30 40 1 3 36
M  V30 41 1 4 37
M  V30 42 1 8 38
M  V30 43 1 9 39
M  V30 44 1 15 40
M  V30 45 1 15 41
M  V30 46 1 16 42
M  V30 47 1 16 43
M  V30 48 1 21 44
M  V30 49 1 24 45
M  V30 50 1 25 46
M  V30 51 1 28 47
M  V30 52 1 28 48
M  V30 53 1 29 49
M  V30 54 1 29 50
M  V30 55 1 30 51 CFG=3
M  V30 56 1 31 52
M  V30 57 1 31 53
M  V30 58 1 31 54
M  V30 59 1 32 55
M  V30 END BOND
M  V30 END CTAB
M  END
>  <Dataset>  (928) 
OralDrugs

>  <Ligand_Instance>  (928) 
nan

>  <PDB_ID>  (928) 
nan

>  <Standardized_SMILES>  (928) 
Cc1ccc(-n2nccn2)c(C(=O)N2CCN(c3nc4cc(Cl)ccc4o3)CC[C@H]2C)c1

>  <Name>  (928) 
Suvorexant

>  <Pocket>  (928) 
nan

>  <ATP_Site>  (928) 
nan

>  <Peripheral>  (928) 
nan

>  <Num_H_Atoms_ProtBoundConf>  (928) 
nan

>  <Num_Resolved_Atoms>  (928) 
nan

>  <Num_Not_Resolved_Atoms>  (928) 
nan

$$$$
CHEMBL95
     RDKit          3D

  0  0  0  0  0  0  0  0  0  0999 V3000
M  V30 BEGIN CTAB
M  V30 COUNTS 29 31 0 0 0
M  V30 BEGIN ATOM
M  V30 1 N 1.717691 1.166172 1.934101 0
M  V30 2 C 0.990036 0.302831 1.066731 0
M  V30 3 C -0.142541 -0.350322 1.517876 0
M  V30 4 C -0.874242 -1.195109 0.706482 0
M  V30 5 N -0.491059 -1.407811 -0.577331 0
M  V30 6 C 0.611579 -0.773692 -1.021149 0
M  V30 7 C 0.979602 -1.005507 -2.325889 0
M  V30 8 C 2.098738 -0.402226 -2.881445 0
M  V30 9 C 2.844954 0.449745 -2.078934 0
M  V30 10 C 2.501447 0.709867 -0.747018 0
M  V30 11 C 1.375272 0.079184 -0.249533 0
M  V30 12 C -2.064416 -1.847765 1.268491 0
M  V30 13 C -1.642283 -2.499031 2.575964 0
M  V30 14 C -0.950186 -1.548951 3.476640 0
M  V30 15 C -0.651601 -0.198482 2.882580 0
M  V30 16 H 1.552901 2.203205 1.773302 0
M  V30 17 H 2.372705 0.866633 2.683739 0
M  V30 18 H 0.392389 -1.677740 -2.962112 0
M  V30 19 H 2.368021 -0.599818 -3.909058 0
M  V30 20 H 3.714030 0.908674 -2.535227 0
M  V30 21 H 3.088657 1.371690 -0.138009 0
M  V30 22 H -2.755751 -1.007695 1.571998 0
M  V30 23 H -2.559584 -2.547167 0.605725 0
M  V30 24 H -1.027657 -3.384714 2.305741 0
M  V30 25 H -2.601803 -2.894657 3.020338 0
M  V30 26 H -1.542303 -1.412814 4.411738 0
M  V30 27 H 0.007235 -2.029221 3.833094 0
M  V30 28 H 0.050035 0.325706 3.555711 0
M  V30 29 H -1.638971 0.346618 2.884148 0
M  V30 END ATOM
M  V30 BEGIN BOND
M  V30 1 1 1 2
M  V30 2 2 2 3
M  V30 3 1 3 4
M  V30 4 2 4 5
M  V30 5 1 5 6
M  V30 6 2 6 7
M  V30 7 1 7 8
M  V30 8 2 8 9
M  V30 9 1 9 10
M  V30 10 2 10 11
M  V30 11 1 4 12
M  V30 12 1 12 13
M  V30 13 1 13 14
M  V30 14 1 14 15
M  V30 15 1 11 2
M  V30 16 1 15 3
M  V30 17 1 11 6
M  V30 18 1 1 16
M  V30 19 1 1 17
M  V30 20 1 7 18
M  V30 21 1 8 19
M  V30 22 1 9 20
M  V30 23 1 10 21
M  V30 24 1 12 22
M  V30 25 1 12 23
M  V30 26 1 13 24
M  V30 27 1 13 25
M  V30 28 1 14 26
M  V30 29 1 14 27
M  V30 30 1 15 28
M  V30 31 1 15 29
M  V30 END BOND
M  V30 END CTAB
M  END
>  <Dataset>  (929) 
OralDrugs

>  <Ligand_Instance>  (929) 
nan

>  <PDB_ID>  (929) 
nan

>  <Standardized_SMILES>  (929) 
Nc1c2c(nc3ccccc13)CCCC2

>  <Name>  (929) 
Tacrine

>  <Pocket>  (929) 
nan

>  <ATP_Site>  (929) 
nan

>  <Peripheral>  (929) 
nan

>  <Num_H_Atoms_ProtBoundConf>  (929) 
nan

>  <Num_Resolved_Atoms>  (929) 
nan

>  <Num_Not_Resolved_Atoms>  (929) 
nan

$$$$
CHEMBL3989887
     RDKit          3D

  0  0  0  0  0  0  0  0  0  0999 V3000
M  V30 BEGIN CTAB
M  V30 COUNTS 126 129 0 0 0
M  V30 BEGIN ATOM
M  V30 1 C -1.823688 4.984344 -2.196011 0
M  V30 2 C -2.846512 4.342613 -1.668712 0
M  V30 3 C -3.563923 3.244897 -1.015454 0
M  V30 4 C -2.629972 2.080574 -0.718134 0 CFG=2
M  V30 5 C -1.578003 2.627634 0.189534 0
M  V30 6 C -1.071731 2.453854 1.426996 0
M  V30 7 C -1.670157 1.390488 2.276996 0
M  V30 8 C 0.004071 3.380454 1.836638 0
M  V30 9 C 1.329495 2.744380 2.179711 0 CFG=2
M  V30 10 C 1.258511 1.778131 3.329144 0
M  V30 11 C 2.260711 3.899045 2.475144 0
M  V30 12 C 3.655870 3.567188 2.816725 0 CFG=2
M  V30 13 O 4.318799 4.808427 3.028060 0
M  V30 14 C 4.780782 4.916622 4.325980 0
M  V30 15 C 4.461690 2.883795 1.744736 0 CFG=1
M  V30 16 O 4.160246 1.567626 1.756452 0
M  V30 17 C 4.553102 0.796968 0.690177 0 CFG=1
M  V30 18 O 5.945223 0.579699 0.837262 0
M  V30 19 C 3.873292 -0.488930 0.857677 0
M  V30 20 O 4.297730 -1.094485 1.903876 0
M  V30 21 C 2.875274 -0.901231 -0.100696 0
M  V30 22 O 2.441735 -0.355336 -1.116448 0
M  V30 23 N 1.995472 -2.004595 -0.331488 0
M  V30 24 C 2.327264 -2.799030 0.819434 0
M  V30 25 C 1.636757 -4.117014 0.924309 0
M  V30 26 C 0.491414 -4.283351 -0.013015 0
M  V30 27 C 0.837040 -3.799816 -1.416457 0
M  V30 28 C 1.008167 -2.331581 -1.377040 0 CFG=1
M  V30 29 C -0.250867 -1.621874 -1.210018 0
M  V30 30 O -0.330167 -0.746055 -0.334755 0
M  V30 31 O -1.224395 -2.017010 -2.065462 0
M  V30 32 C -2.534644 -1.553108 -2.197835 0 CFG=2
M  V30 33 C -3.499953 -2.545843 -1.543666 0
M  V30 34 C -3.271237 -3.072883 -0.168254 0
M  V30 35 C -4.617055 -3.143354 -1.940598 0
M  V30 36 C -5.675999 -4.049613 -1.602209 0 CFG=2
M  V30 37 C -6.971760 -3.261763 -1.901188 0
M  V30 38 C -8.207416 -4.040331 -1.621136 0
M  V30 39 C -8.334259 -4.265613 -0.155800 0 CFG=1
M  V30 40 O -8.934072 -5.491419 0.104761 0
M  V30 41 C -6.983934 -4.099143 0.469262 0 CFG=2
M  V30 42 O -6.762548 -2.784297 0.761102 0
M  V30 43 C -6.690742 -2.478105 2.103310 0
M  V30 44 C -5.862507 -4.749305 -0.362569 0
M  V30 45 C -2.972045 -1.134428 -3.510356 0 CFG=2
M  V30 46 C -2.875773 -2.159597 -4.612715 0
M  V30 47 C -2.513934 0.168142 -4.021095 0 CFG=1
M  V30 48 O -2.978822 0.423027 -5.330826 0
M  V30 49 C -2.879680 1.295418 -3.105077 0
M  V30 50 C -2.016650 1.546742 -1.949470 0
M  V30 51 O -1.052054 1.162839 -2.586046 0
M  V30 52 C 4.385216 1.469299 -0.631753 0 CFG=2
M  V30 53 C 4.999455 0.750768 -1.774015 0
M  V30 54 C 5.087538 2.830499 -0.583233 0
M  V30 55 C 4.360242 3.640269 0.480694 0 CFG=2
M  V30 56 O 5.108246 4.832488 0.612882 0
M  V30 57 C 4.451838 5.954407 0.184163 0
M  V30 58 H -1.430546 5.857007 -2.672602 0
M  V30 59 H -0.774217 4.781306 -2.362867 0
M  V30 60 H -3.578468 5.141059 -1.840460 0
M  V30 61 H -4.399813 2.852385 -1.648564 0
M  V30 62 H -3.993812 3.573874 -0.069879 0
M  V30 63 H -3.210197 1.340028 -0.140525 0
M  V30 64 H -1.125964 3.406322 -0.445673 0
M  V30 65 H -1.987796 1.775794 3.275986 0
M  V30 66 H -2.581147 1.022006 1.759075 0
M  V30 67 H -0.981130 0.550105 2.351666 0
M  V30 68 H -0.361299 3.859904 2.793862 0
M  V30 69 H 0.124771 4.223753 1.124533 0
M  V30 70 H 1.641737 2.169200 1.287574 0
M  V30 71 H 0.286631 1.849189 3.895551 0
M  V30 72 H 2.044324 1.938489 4.101507 0
M  V30 73 H 1.312897 0.716980 2.971179 0
M  V30 74 H 1.820132 4.371264 3.408900 0
M  V30 75 H 2.136020 4.705623 1.714295 0
M  V30 76 H 3.677321 2.993851 3.777849 0
M  V30 77 H 3.909651 4.843159 5.015349 0
M  V30 78 H 5.573438 4.184013 4.519449 0
M  V30 79 H 5.167120 5.947142 4.432422 0
M  V30 80 H 5.537910 2.976608 2.088249 0
M  V30 81 H 6.380509 1.415253 1.098213 0
M  V30 82 H 1.981016 -2.213200 1.731790 0
M  V30 83 H 3.424006 -3.018928 0.925556 0
M  V30 84 H 1.373510 -4.307213 1.982540 0
M  V30 85 H 2.387629 -4.917993 0.682589 0
M  V30 86 H 0.284728 -5.387050 -0.131077 0
M  V30 87 H -0.448442 -3.856123 0.337711 0
M  V30 88 H 1.754166 -4.311485 -1.784816 0
M  V30 89 H 0.026689 -4.090784 -2.085452 0
M  V30 90 H 1.486395 -2.020061 -2.354825 0
M  V30 91 H -2.595580 -0.720343 -1.494194 0
M  V30 92 H -4.047839 -2.756690 0.561852 0
M  V30 93 H -2.902237 -4.081176 -0.100500 0
M  V30 94 H -2.385426 -2.464532 0.199769 0
M  V30 95 H -4.764613 -2.757722 -2.982606 0
M  V30 96 H -5.698190 -4.833478 -2.444641 0
M  V30 97 H -6.976904 -3.081283 -3.020615 0
M  V30 98 H -6.937288 -2.241198 -1.482301 0
M  V30 99 H -9.068184 -3.389816 -1.959557 0
M  V30 100 H -8.283749 -4.944811 -2.234489 0
M  V30 101 H -8.981690 -3.481456 0.284181 0
M  V30 102 H -9.916329 -5.346697 -0.062139 0
M  V30 103 H -7.048839 -4.627404 1.464957 0
M  V30 104 H -5.896806 -2.991684 2.650896 0
M  V30 105 H -6.504792 -1.370779 2.157233 0
M  V30 106 H -7.701984 -2.601044 2.572788 0
M  V30 107 H -6.365874 -5.754267 -0.577975 0
M  V30 108 H -5.067272 -4.863646 0.365359 0
M  V30 109 H -4.120638 -0.969607 -3.410393 0
M  V30 110 H -1.978709 -1.879261 -5.242146 0
M  V30 111 H -2.866507 -3.196298 -4.309924 0
M  V30 112 H -3.728057 -1.998094 -5.293866 0
M  V30 113 H -1.401127 0.138579 -4.128091 0
M  V30 114 H -3.718581 1.076090 -5.321639 0
M  V30 115 H -2.968470 2.213543 -3.763218 0
M  V30 116 H -3.927120 1.178017 -2.714369 0
M  V30 117 H 3.316105 1.741651 -0.741000 0
M  V30 118 H 5.962704 1.232834 -2.088458 0
M  V30 119 H 5.119903 -0.338661 -1.641931 0
M  V30 120 H 4.338595 0.884309 -2.668440 0
M  V30 121 H 6.163146 2.759404 -0.437763 0
M  V30 122 H 4.846627 3.328970 -1.553686 0
M  V30 123 H 3.368283 3.837301 0.076876 0
M  V30 124 H 4.159614 5.886146 -0.900669 0
M  V30 125 H 5.232231 6.780598 0.205155 0
M  V30 126 H 3.642319 6.302975 0.838363 0
M  V30 END ATOM
M  V30 BEGIN BOND
M  V30 1 2 1 2
M  V30 2 1 2 3
M  V30 3 1 3 4
M  V30 4 1 4 5
M  V30 5 2 5 6
M  V30 6 1 6 7
M  V30 7 1 6 8
M  V30 8 1 8 9
M  V30 9 1 9 10
M  V30 10 1 9 11
M  V30 11 1 11 12
M  V30 12 1 12 13
M  V30 13 1 13 14
M  V30 14 1 12 15
M  V30 15 1 15 16
M  V30 16 1 16 17
M  V30 17 1 17 18 CFG=1
M  V30 18 1 17 19
M  V30 19 2 19 20
M  V30 20 1 19 21
M  V30 21 2 21 22
M  V30 22 1 21 23
M  V30 23 1 23 24
M  V30 24 1 24 25
M  V30 25 1 25 26
M  V30 26 1 26 27
M  V30 27 1 27 28
M  V30 28 1 28 29
M  V30 29 2 29 30
M  V30 30 1 29 31
M  V30 31 1 31 32
M  V30 32 1 32 33
M  V30 33 1 33 34
M  V30 34 2 33 35
M  V30 35 1 35 36
M  V30 36 1 36 37
M  V30 37 1 37 38
M  V30 38 1 38 39
M  V30 39 1 39 40
M  V30 40 1 39 41
M  V30 41 1 41 42
M  V30 42 1 42 43
M  V30 43 1 41 44
M  V30 44 1 32 45
M  V30 45 1 45 46
M  V30 46 1 45 47
M  V30 47 1 47 48
M  V30 48 1 47 49
M  V30 49 1 49 50
M  V30 50 2 50 51
M  V30 51 1 17 52
M  V30 52 1 52 53
M  V30 53 1 52 54
M  V30 54 1 54 55
M  V30 55 1 55 56
M  V30 56 1 56 57
M  V30 57 1 50 4
M  V30 58 1 55 15
M  V30 59 1 28 23
M  V30 60 1 44 36
M  V30 61 1 1 58
M  V30 62 1 1 59
M  V30 63 1 2 60
M  V30 64 1 3 61
M  V30 65 1 3 62
M  V30 66 1 4 63 CFG=1
M  V30 67 1 5 64
M  V30 68 1 7 65
M  V30 69 1 7 66
M  V30 70 1 7 67
M  V30 71 1 8 68
M  V30 72 1 8 69
M  V30 73 1 9 70 CFG=3
M  V30 74 1 10 71
M  V30 75 1 10 72
M  V30 76 1 10 73
M  V30 77 1 11 74
M  V30 78 1 11 75
M  V30 79 1 12 76 CFG=1
M  V30 80 1 14 77
M  V30 81 1 14 78
M  V30 82 1 14 79
M  V30 83 1 15 80 CFG=1
M  V30 84 1 18 81
M  V30 85 1 24 82
M  V30 86 1 24 83
M  V30 87 1 25 84
M  V30 88 1 25 85
M  V30 89 1 26 86
M  V30 90 1 26 87
M  V30 91 1 27 88
M  V30 92 1 27 89
M  V30 93 1 28 90 CFG=3
M  V30 94 1 32 91 CFG=1
M  V30 95 1 34 92
M  V30 96 1 34 93
M  V30 97 1 34 94
M  V30 98 1 35 95
M  V30 99 1 36 96 CFG=3
M  V30 100 1 37 97
M  V30 101 1 37 98
M  V30 102 1 38 99
M  V30 103 1 38 100
M  V30 104 1 39 101 CFG=1
M  V30 105 1 40 102
M  V30 106 1 41 103 CFG=1
M  V30 107 1 43 104
M  V30 108 1 43 105
M  V30 109 1 43 106
M  V30 110 1 44 107
M  V30 111 1 44 108
M  V30 112 1 45 109 CFG=1
M  V30 113 1 46 110
M  V30 114 1 46 111
M  V30 115 1 46 112
M  V30 116 1 47 113 CFG=3
M  V30 117 1 48 114
M  V30 118 1 49 115
M  V30 119 1 49 116
M  V30 120 1 52 117 CFG=3
M  V30 121 1 53 118
M  V30 122 1 53 119
M  V30 123 1 53 120
M  V30 124 1 54 121
M  V30 125 1 54 122
M  V30 126 1 55 123 CFG=3
M  V30 127 1 57 124
M  V30 128 1 57 125
M  V30 129 1 57 126
M  V30 END BOND
M  V30 END CTAB
M  END
>  <Dataset>  (930) 
OralDrugs

>  <Ligand_Instance>  (930) 
nan

>  <PDB_ID>  (930) 
nan

>  <Standardized_SMILES>  (930) 
C=CC[C@@H]1/C=C(\C)C[C@H](C)C[C@H](OC)[C@H]2O[C@@](O)(C(=O)C(=O)N3CCCC[C@H]3C(=O)O[C@H](/C(C)=C/[C@@H]3CC[C@@H](O)[C@H](OC)C3)[C@H](C)[C@@H](O)CC1=O)[C@H](C)C[C@@H]2OC

>  <Name>  (930) 
Tacrolimus

>  <Pocket>  (930) 
nan

>  <ATP_Site>  (930) 
nan

>  <Peripheral>  (930) 
nan

>  <Num_H_Atoms_ProtBoundConf>  (930) 
nan

>  <Num_Resolved_Atoms>  (930) 
nan

>  <Num_Not_Resolved_Atoms>  (930) 
nan

$$$$
CHEMBL779
     RDKit          3D

  0  0  0  0  0  0  0  0  0  0999 V3000
M  V30 BEGIN CTAB
M  V30 COUNTS 48 53 0 0 0
M  V30 BEGIN ATOM
M  V30 1 C -1.379995 -0.539503 5.041138 0
M  V30 2 N -0.611246 -1.171465 3.980413 0
M  V30 3 C 0.816892 -1.021511 3.976582 0
M  V30 4 C 1.409084 -1.331388 2.649452 0
M  V30 5 O 2.645952 -1.090593 2.510600 0
M  V30 6 N 0.612328 -1.870863 1.599235 0
M  V30 7 C 1.022908 -1.622683 0.240156 0 CFG=2
M  V30 8 C 1.893937 -0.456983 0.094148 0
M  V30 9 C 3.048403 -0.493154 -0.693058 0
M  V30 10 C 3.924422 0.556647 -0.885882 0
M  V30 11 C 3.605377 1.723864 -0.233787 0
M  V30 12 C 2.482217 1.846312 0.564836 0
M  V30 13 C 1.647175 0.756985 0.715357 0
M  V30 14 O 2.513498 3.164424 1.038840 0
M  V30 15 C 3.838981 3.694155 0.903663 0
M  V30 16 O 4.283540 2.950496 -0.227620 0
M  V30 17 C -0.257818 -1.371103 -0.514680 0
M  V30 18 N -0.511704 -0.527372 -1.541707 0
M  V30 19 C -1.799672 -0.614121 -1.925342 0
M  V30 20 C -2.548736 0.024403 -2.909932 0
M  V30 21 C -3.879996 -0.309121 -3.036962 0
M  V30 22 C -4.483091 -1.247418 -2.224481 0
M  V30 23 C -3.772675 -1.898750 -1.240117 0
M  V30 24 C -2.421460 -1.563705 -1.107340 0
M  V30 25 C -1.439065 -2.026037 -0.230611 0
M  V30 26 C -1.445571 -3.024552 0.870525 0
M  V30 27 C -0.541180 -2.621967 1.988105 0 CFG=2
M  V30 28 C -1.360705 -1.902829 3.012907 0
M  V30 29 O -2.635470 -1.933965 3.030392 0
M  V30 30 H -2.038265 -1.307842 5.533244 0
M  V30 31 H -2.077995 0.233678 4.657895 0
M  V30 32 H -0.725977 -0.160909 5.869362 0
M  V30 33 H 1.048814 0.054722 4.222993 0
M  V30 34 H 1.289258 -1.619311 4.781245 0
M  V30 35 H 1.500249 -2.497985 -0.223088 0
M  V30 36 H 3.235064 -1.449890 -1.177405 0
M  V30 37 H 4.778408 0.401886 -1.516287 0
M  V30 38 H 0.773031 0.865417 1.341830 0
M  V30 39 H 4.375792 3.378664 1.840546 0
M  V30 40 H 3.862133 4.772499 0.744671 0
M  V30 41 H 0.147814 0.107730 -1.998079 0
M  V30 42 H -2.110357 0.757803 -3.557271 0
M  V30 43 H -4.541808 0.137408 -3.776876 0
M  V30 44 H -5.519984 -1.555214 -2.270331 0
M  V30 45 H -4.154417 -2.647414 -0.554810 0
M  V30 46 H -2.485961 -3.175432 1.236036 0
M  V30 47 H -1.064826 -3.974980 0.397165 0
M  V30 48 H -0.203277 -3.566244 2.499057 0
M  V30 END ATOM
M  V30 BEGIN BOND
M  V30 1 1 1 2
M  V30 2 1 2 3
M  V30 3 1 3 4
M  V30 4 2 4 5
M  V30 5 1 4 6
M  V30 6 1 6 7
M  V30 7 1 7 8
M  V30 8 2 8 9
M  V30 9 1 9 10
M  V30 10 2 10 11
M  V30 11 1 11 12
M  V30 12 2 12 13
M  V30 13 1 12 14
M  V30 14 1 14 15
M  V30 15 1 15 16
M  V30 16 1 7 17
M  V30 17 1 17 18
M  V30 18 1 18 19
M  V30 19 2 19 20
M  V30 20 1 20 21
M  V30 21 2 21 22
M  V30 22 1 22 23
M  V30 23 2 23 24
M  V30 24 1 24 25
M  V30 25 1 25 26
M  V30 26 1 26 27
M  V30 27 1 27 28
M  V30 28 2 28 29
M  V30 29 1 28 2
M  V30 30 1 27 6
M  V30 31 1 13 8
M  V30 32 2 25 17
M  V30 33 1 16 11
M  V30 34 1 24 19
M  V30 35 1 1 30
M  V30 36 1 1 31
M  V30 37 1 1 32
M  V30 38 1 3 33
M  V30 39 1 3 34
M  V30 40 1 7 35 CFG=3
M  V30 41 1 9 36
M  V30 42 1 10 37
M  V30 43 1 13 38
M  V30 44 1 15 39
M  V30 45 1 15 40
M  V30 46 1 18 41
M  V30 47 1 20 42
M  V30 48 1 21 43
M  V30 49 1 22 44
M  V30 50 1 23 45
M  V30 51 1 26 46
M  V30 52 1 26 47
M  V30 53 1 27 48 CFG=1
M  V30 END BOND
M  V30 END CTAB
M  END
>  <Dataset>  (931) 
OralDrugs

>  <Ligand_Instance>  (931) 
nan

>  <PDB_ID>  (931) 
nan

>  <Standardized_SMILES>  (931) 
CN1CC(=O)N2[C@H](c3ccc4c(c3)OCO4)c3[nH]c4ccccc4c3C[C@@H]2C1=O

>  <Name>  (931) 
Tadalafil

>  <Pocket>  (931) 
nan

>  <ATP_Site>  (931) 
nan

>  <Peripheral>  (931) 
nan

>  <Num_H_Atoms_ProtBoundConf>  (931) 
nan

>  <Num_Resolved_Atoms>  (931) 
nan

>  <Num_Not_Resolved_Atoms>  (931) 
nan

$$$$
CHEMBL2103837
     RDKit          3D

  0  0  0  0  0  0  0  0  0  0999 V3000
M  V30 BEGIN CTAB
M  V30 COUNTS 27 29 0 0 0
M  V30 BEGIN ATOM
M  V30 1 O 1.749559 -5.530068 3.389064 0
M  V30 2 C 0.852723 -4.656682 3.272893 0
M  V30 3 O -0.227481 -4.916792 4.096278 0
M  V30 4 C 1.019974 -3.538367 2.353923 0
M  V30 5 C 2.207695 -3.531093 1.653266 0
M  V30 6 C 2.430123 -2.487307 0.756700 0
M  V30 7 C 1.473731 -1.484957 0.580662 0
M  V30 8 N 1.339921 -0.369304 -0.160120 0
M  V30 9 C 0.153810 0.214037 0.105960 0
M  V30 10 C -0.341673 1.445895 -0.508416 0
M  V30 11 C 0.410434 2.134364 -1.454136 0
M  V30 12 C -0.115684 3.305701 -2.006184 0
M  V30 13 Cl 0.906282 4.083084 -3.175143 0
M  V30 14 C -1.359377 3.749072 -1.603725 0
M  V30 15 C -2.108590 3.068615 -0.665579 0
M  V30 16 Cl -3.658640 3.736118 -0.248359 0
M  V30 17 C -1.589496 1.905805 -0.115681 0
M  V30 18 O -0.439949 -0.537031 1.004997 0
M  V30 19 C 0.322246 -1.578558 1.323488 0
M  V30 20 C 0.026427 -2.591280 2.240211 0
M  V30 21 H -0.124077 -5.049005 5.113950 0
M  V30 22 H 2.969732 -4.283861 1.759840 0
M  V30 23 H 3.338937 -2.413700 0.170621 0
M  V30 24 H 1.364749 1.691188 -1.687352 0
M  V30 25 H -1.637448 4.673367 -2.119584 0
M  V30 26 H -2.234224 1.434726 0.607576 0
M  V30 27 H -0.884044 -2.618334 2.793086 0
M  V30 END ATOM
M  V30 BEGIN BOND
M  V30 1 2 1 2
M  V30 2 1 2 3
M  V30 3 1 2 4
M  V30 4 2 4 5
M  V30 5 1 5 6
M  V30 6 2 6 7
M  V30 7 1 7 8
M  V30 8 2 8 9
M  V30 9 1 9 10
M  V30 10 2 10 11
M  V30 11 1 11 12
M  V30 12 1 12 13
M  V30 13 2 12 14
M  V30 14 1 14 15
M  V30 15 1 15 16
M  V30 16 2 15 17
M  V30 17 1 9 18
M  V30 18 1 18 19
M  V30 19 2 19 20
M  V30 20 1 20 4
M  V30 21 1 19 7
M  V30 22 1 17 10
M  V30 23 1 3 21
M  V30 24 1 5 22
M  V30 25 1 6 23
M  V30 26 1 11 24
M  V30 27 1 14 25
M  V30 28 1 17 26
M  V30 29 1 20 27
M  V30 END BOND
M  V30 END CTAB
M  END
>  <Dataset>  (932) 
OralDrugs

>  <Ligand_Instance>  (932) 
nan

>  <PDB_ID>  (932) 
nan

>  <Standardized_SMILES>  (932) 
O=C(O)c1ccc2nc(-c3cc(Cl)cc(Cl)c3)oc2c1

>  <Name>  (932) 
Tafamidis

>  <Pocket>  (932) 
nan

>  <ATP_Site>  (932) 
nan

>  <Peripheral>  (932) 
nan

>  <Num_H_Atoms_ProtBoundConf>  (932) 
nan

>  <Num_Resolved_Atoms>  (932) 
nan

>  <Num_Not_Resolved_Atoms>  (932) 
nan

$$$$
CHEMBL298470
     RDKit          3D

  0  0  0  0  0  0  0  0  0  0999 V3000
M  V30 BEGIN CTAB
M  V30 COUNTS 61 63 0 0 0
M  V30 BEGIN ATOM
M  V30 1 C 2.213218 -5.092604 3.060791 0
M  V30 2 O 2.243541 -3.783464 3.613525 0
M  V30 3 C 1.452492 -2.809778 3.029571 0
M  V30 4 C 1.431774 -1.529081 3.508700 0
M  V30 5 C 0.687141 -0.449953 3.022851 0
M  V30 6 C 0.779267 0.865133 3.675768 0
M  V30 7 C -0.104145 -0.749236 1.935870 0
M  V30 8 C -0.873094 0.255631 1.399759 0
M  V30 9 O -0.916512 1.561356 1.851115 0
M  V30 10 C -0.158910 2.591774 1.306832 0
M  V30 11 C 0.751088 2.590296 0.271769 0
M  V30 12 C 1.371641 3.774179 -0.069485 0
M  V30 13 C 1.110935 4.956914 0.590842 0
M  V30 14 C 0.196592 4.978474 1.637024 0
M  V30 15 C -0.036098 6.268764 2.298572 0
M  V30 16 F 0.926138 6.473795 3.260800 0
M  V30 17 F 0.107846 7.285637 1.364372 0
M  V30 18 F -1.320070 6.375907 2.807051 0
M  V30 19 C -0.433585 3.781293 1.985127 0
M  V30 20 C -1.683830 -0.033031 0.308370 0
M  V30 21 O -2.467081 0.950752 -0.251474 0
M  V30 22 C -3.310036 0.754337 -1.345002 0
M  V30 23 C -1.655269 -1.339595 -0.168874 0
M  V30 24 C -0.882382 -2.364455 0.361456 0
M  V30 25 N -0.945675 -3.681856 -0.194523 0
M  V30 26 C -1.635669 -4.271750 -1.280844 0
M  V30 27 C -1.496455 -5.798588 -1.202258 0
M  V30 28 C -1.246583 -3.805834 -2.658444 0
M  V30 29 C 0.163797 -4.023497 -3.056879 0
M  V30 30 C 1.195138 -3.319478 -2.216335 0
M  V30 31 N 0.977513 -1.864799 -2.279008 0
M  V30 32 C -0.079773 -2.035044 1.460159 0
M  V30 33 N 0.659189 -3.030233 1.972485 0
M  V30 34 H 2.816998 -5.772840 3.692759 0
M  V30 35 H 1.175688 -5.443536 2.898808 0
M  V30 36 H 2.719716 -5.028024 2.075564 0
M  V30 37 H 2.081765 -1.341454 4.377152 0
M  V30 38 H 1.196835 0.634522 4.716620 0
M  V30 39 H -0.177523 1.351425 3.916902 0
M  V30 40 H 1.564169 1.533619 3.261361 0
M  V30 41 H 0.866725 1.619400 -0.158449 0
M  V30 42 H 2.081589 3.699596 -0.899593 0
M  V30 43 H 1.639979 5.841631 0.261568 0
M  V30 44 H -1.120169 3.933089 2.812431 0
M  V30 45 H -3.888701 -0.209983 -1.308603 0
M  V30 46 H -2.768439 0.737233 -2.307761 0
M  V30 47 H -4.107917 1.538506 -1.419169 0
M  V30 48 H -2.323316 -1.478725 -1.007974 0
M  V30 49 H -0.339245 -4.349102 0.348492 0
M  V30 50 H -2.721400 -4.065153 -1.183266 0
M  V30 51 H -2.167044 -6.113546 -0.373659 0
M  V30 52 H -0.482917 -6.111042 -0.924187 0
M  V30 53 H -1.892070 -6.249091 -2.127386 0
M  V30 54 H -1.893411 -4.297322 -3.437648 0
M  V30 55 H -1.453796 -2.722456 -2.738859 0
M  V30 56 H 0.423841 -5.094377 -3.226099 0
M  V30 57 H 0.272268 -3.570031 -4.088524 0
M  V30 58 H 1.301919 -3.695661 -1.200496 0
M  V30 59 H 2.223822 -3.438463 -2.677286 0
M  V30 60 H 1.251012 -1.578846 -3.251049 0
M  V30 61 H 1.669667 -1.471950 -1.595899 0
M  V30 END ATOM
M  V30 BEGIN BOND
M  V30 1 1 1 2
M  V30 2 1 2 3
M  V30 3 2 3 4
M  V30 4 1 4 5
M  V30 5 1 5 6
M  V30 6 2 5 7
M  V30 7 1 7 8
M  V30 8 1 8 9
M  V30 9 1 9 10
M  V30 10 2 10 11
M  V30 11 1 11 12
M  V30 12 2 12 13
M  V30 13 1 13 14
M  V30 14 1 14 15
M  V30 15 1 15 16
M  V30 16 1 15 17
M  V30 17 1 15 18
M  V30 18 2 14 19
M  V30 19 2 8 20
M  V30 20 1 20 21
M  V30 21 1 21 22
M  V30 22 1 20 23
M  V30 23 2 23 24
M  V30 24 1 24 25
M  V30 25 1 25 26
M  V30 26 1 26 27
M  V30 27 1 26 28
M  V30 28 1 28 29
M  V30 29 1 29 30
M  V30 30 1 30 31
M  V30 31 1 24 32
M  V30 32 2 32 33
M  V30 33 1 33 3
M  V30 34 1 32 7
M  V30 35 1 19 10
M  V30 36 1 1 34
M  V30 37 1 1 35
M  V30 38 1 1 36
M  V30 39 1 4 37
M  V30 40 1 6 38
M  V30 41 1 6 39
M  V30 42 1 6 40
M  V30 43 1 11 41
M  V30 44 1 12 42
M  V30 45 1 13 43
M  V30 46 1 19 44
M  V30 47 1 22 45
M  V30 48 1 22 46
M  V30 49 1 22 47
M  V30 50 1 23 48
M  V30 51 1 25 49
M  V30 52 1 26 50
M  V30 53 1 27 51
M  V30 54 1 27 52
M  V30 55 1 27 53
M  V30 56 1 28 54
M  V30 57 1 28 55
M  V30 58 1 29 56
M  V30 59 1 29 57
M  V30 60 1 30 58
M  V30 61 1 30 59
M  V30 62 1 31 60
M  V30 63 1 31 61
M  V30 END BOND
M  V30 END CTAB
M  END
>  <Dataset>  (933) 
OralDrugs

>  <Ligand_Instance>  (933) 
nan

>  <PDB_ID>  (933) 
nan

>  <Standardized_SMILES>  (933) 
COc1cc(C)c2c(Oc3cccc(C(F)(F)F)c3)c(OC)cc(NC(C)CCCN)c2n1

>  <Name>  (933) 
Tafenoquine

>  <Pocket>  (933) 
nan

>  <ATP_Site>  (933) 
nan

>  <Peripheral>  (933) 
nan

>  <Num_H_Atoms_ProtBoundConf>  (933) 
nan

>  <Num_Resolved_Atoms>  (933) 
nan

>  <Num_Not_Resolved_Atoms>  (933) 
nan

$$$$
CHEMBL3137320
     RDKit          3D

  0  0  0  0  0  0  0  0  0  0999 V3000
M  V30 BEGIN CTAB
M  V30 COUNTS 42 46 0 0 0
M  V30 BEGIN ATOM
M  V30 1 C -2.749615 -2.179862 0.595006 0
M  V30 2 N -3.202193 -0.824221 0.477884 0
M  V30 3 N -4.433020 -0.377763 0.775321 0
M  V30 4 C -4.395191 0.939436 0.516015 0
M  V30 5 N -3.195843 1.272332 0.081786 0
M  V30 6 C -2.397851 0.159355 0.043650 0
M  V30 7 C -1.015241 0.255363 -0.402443 0 CFG=1
M  V30 8 C -0.168071 0.544128 0.797731 0
M  V30 9 N -0.735232 1.175386 1.861076 0
M  V30 10 N -0.018332 1.452722 2.950743 0
M  V30 11 C 1.283614 1.135051 3.070636 0
M  V30 12 O 1.867596 1.442048 4.141800 0
M  V30 13 C 1.889420 0.492222 2.006001 0
M  V30 14 C 3.222134 0.179335 2.156339 0
M  V30 15 C 3.816529 -0.461357 1.088991 0
M  V30 16 F 5.120513 -0.800476 1.161514 0
M  V30 17 C 3.109243 -0.766752 -0.057957 0
M  V30 18 C 1.776917 -0.455297 -0.211265 0
M  V30 19 C 1.163066 0.190090 0.854134 0
M  V30 20 N 0.995712 -0.742086 -1.362935 0
M  V30 21 C -0.464121 -0.891042 -1.175660 0 CFG=2
M  V30 22 C -0.958266 -0.973599 -2.574568 0
M  V30 23 C -2.032999 -0.317608 -3.120554 0
M  V30 24 C -2.409124 -0.463917 -4.429030 0
M  V30 25 C -1.707673 -1.296256 -5.274353 0
M  V30 26 F -2.093099 -1.432586 -6.574693 0
M  V30 27 C -0.620033 -1.974781 -4.765443 0
M  V30 28 C -0.255290 -1.815404 -3.444452 0
M  V30 29 H -3.528493 -2.743239 1.200304 0
M  V30 30 H -2.701011 -2.761309 -0.321409 0
M  V30 31 H -1.851310 -2.296126 1.272475 0
M  V30 32 H -5.216692 1.656918 0.635722 0
M  V30 33 H -0.833542 1.173482 -1.036583 0
M  V30 34 H -0.531741 1.941161 3.725449 0
M  V30 35 H 3.767188 0.426267 3.066406 0
M  V30 36 H 3.586228 -1.267885 -0.885027 0
M  V30 37 H 1.544931 -0.824410 -2.269617 0
M  V30 38 H -0.514887 -1.867306 -0.653294 0
M  V30 39 H -2.571637 0.323218 -2.467346 0
M  V30 40 H -3.265534 0.082835 -4.792718 0
M  V30 41 H -0.100043 -2.614818 -5.460473 0
M  V30 42 H 0.624370 -2.413866 -3.180544 0
M  V30 END ATOM
M  V30 BEGIN BOND
M  V30 1 1 1 2
M  V30 2 1 2 3
M  V30 3 2 3 4
M  V30 4 1 4 5
M  V30 5 2 5 6
M  V30 6 1 6 7
M  V30 7 1 7 8
M  V30 8 2 8 9
M  V30 9 1 9 10
M  V30 10 1 10 11
M  V30 11 2 11 12
M  V30 12 1 11 13
M  V30 13 2 13 14
M  V30 14 1 14 15
M  V30 15 1 15 16
M  V30 16 2 15 17
M  V30 17 1 17 18
M  V30 18 2 18 19
M  V30 19 1 18 20
M  V30 20 1 20 21
M  V30 21 1 21 22
M  V30 22 2 22 23
M  V30 23 1 23 24
M  V30 24 2 24 25
M  V30 25 1 25 26
M  V30 26 1 25 27
M  V30 27 2 27 28
M  V30 28 1 6 2
M  V30 29 1 21 7
M  V30 30 1 28 22
M  V30 31 1 19 8
M  V30 32 1 19 13
M  V30 33 1 1 29
M  V30 34 1 1 30
M  V30 35 1 1 31
M  V30 36 1 4 32
M  V30 37 1 7 33 CFG=3
M  V30 38 1 10 34
M  V30 39 1 14 35
M  V30 40 1 17 36
M  V30 41 1 20 37
M  V30 42 1 21 38 CFG=1
M  V30 43 1 23 39
M  V30 44 1 24 40
M  V30 45 1 27 41
M  V30 46 1 28 42
M  V30 END BOND
M  V30 END CTAB
M  END
>  <Dataset>  (934) 
OralDrugs

>  <Ligand_Instance>  (934) 
nan

>  <PDB_ID>  (934) 
nan

>  <Standardized_SMILES>  (934) 
Cn1ncnc1[C@H]1c2n[nH]c(=O)c3cc(F)cc(c23)N[C@@H]1c1ccc(F)cc1

>  <Name>  (934) 
Talazoparib

>  <Pocket>  (934) 
nan

>  <ATP_Site>  (934) 
nan

>  <Peripheral>  (934) 
nan

>  <Num_H_Atoms_ProtBoundConf>  (934) 
nan

>  <Num_Resolved_Atoms>  (934) 
nan

>  <Num_Not_Resolved_Atoms>  (934) 
nan

$$$$
CHEMBL1200802
     RDKit          3D

  0  0  0  0  0  0  0  0  0  0999 V3000
M  V30 BEGIN CTAB
M  V30 COUNTS 32 32 0 0 0
M  V30 BEGIN ATOM
M  V30 1 C -0.579322 -0.404487 3.405550 0
M  V30 2 C -1.323023 -0.021645 2.382359 0
M  V30 3 C -1.065244 0.075856 0.916870 0
M  V30 4 C 0.297311 -0.339094 0.525140 0
M  V30 5 C 0.704852 -1.714855 0.823757 0
M  V30 6 C 2.158291 -1.950348 0.377091 0
M  V30 7 C -0.068977 -2.763033 0.097996 0
M  V30 8 C -1.531863 -2.859546 0.314703 0
M  V30 9 C 0.472825 -0.042099 -0.947650 0
M  V30 10 O 0.769344 -0.734822 -1.987667 0
M  V30 11 N 0.278582 1.325136 -1.372401 0
M  V30 12 C 0.562146 2.442993 -0.502869 0
M  V30 13 O 0.407411 3.645483 -0.832530 0
M  V30 14 N 1.043263 2.061552 0.790819 0
M  V30 15 C 1.217602 0.682052 1.162076 0
M  V30 16 O 2.146583 0.521719 1.995510 0
M  V30 17 H -0.678114 -0.507972 4.489923 0
M  V30 18 H 0.275996 -0.766730 3.965710 0
M  V30 19 H -2.310082 0.271280 2.725828 0
M  V30 20 H -1.868603 -0.370192 0.357355 0
M  V30 21 H -1.151298 1.194254 0.710669 0
M  V30 22 H 0.703512 -1.915974 1.902631 0
M  V30 23 H 2.143708 -2.273113 -0.696429 0
M  V30 24 H 2.773354 -1.056486 0.416618 0
M  V30 25 H 2.537388 -2.814052 0.954799 0
M  V30 26 H 0.071820 -2.703012 -1.015798 0
M  V30 27 H 0.372432 -3.797498 0.320740 0
M  V30 28 H -1.914224 -2.552131 1.288313 0
M  V30 29 H -2.134755 -2.476188 -0.547768 0
M  V30 30 H -1.793915 -3.979351 0.269302 0
M  V30 31 H -0.076449 1.611132 -2.325628 0
M  V30 32 H 1.257336 2.866872 1.442356 0
M  V30 END ATOM
M  V30 BEGIN BOND
M  V30 1 2 1 2
M  V30 2 1 2 3
M  V30 3 1 3 4
M  V30 4 1 4 5
M  V30 5 1 5 6
M  V30 6 1 5 7
M  V30 7 1 7 8
M  V30 8 1 4 9
M  V30 9 2 9 10
M  V30 10 1 9 11
M  V30 11 1 11 12
M  V30 12 2 12 13
M  V30 13 1 12 14
M  V30 14 1 14 15
M  V30 15 2 15 16
M  V30 16 1 15 4
M  V30 17 1 1 17
M  V30 18 1 1 18
M  V30 19 1 2 19
M  V30 20 1 3 20
M  V30 21 1 3 21
M  V30 22 1 5 22
M  V30 23 1 6 23
M  V30 24 1 6 24
M  V30 25 1 6 25
M  V30 26 1 7 26
M  V30 27 1 7 27
M  V30 28 1 8 28
M  V30 29 1 8 29
M  V30 30 1 8 30
M  V30 31 1 11 31
M  V30 32 1 14 32
M  V30 END BOND
M  V30 END CTAB
M  END
>  <Dataset>  (935) 
OralDrugs

>  <Ligand_Instance>  (935) 
nan

>  <PDB_ID>  (935) 
nan

>  <Standardized_SMILES>  (935) 
C=CCC1(C(C)CC)C(=O)NC(=O)NC1=O

>  <Name>  (935) 
Talbutal

>  <Pocket>  (935) 
nan

>  <ATP_Site>  (935) 
nan

>  <Peripheral>  (935) 
nan

>  <Num_H_Atoms_ProtBoundConf>  (935) 
nan

>  <Num_Resolved_Atoms>  (935) 
nan

>  <Num_Not_Resolved_Atoms>  (935) 
nan

$$$$
CHEMBL25202
     RDKit          3D

  0  0  0  0  0  0  0  0  0  0999 V3000
M  V30 BEGIN CTAB
M  V30 COUNTS 51 53 0 0 0
M  V30 BEGIN ATOM
M  V30 1 C 2.545375 -4.151804 1.416637 0
M  V30 2 C 2.988199 -3.298474 0.227973 0
M  V30 3 C 3.205320 -4.189031 -0.944761 0
M  V30 4 C 4.257535 -2.560885 0.570054 0
M  V30 5 C 4.092033 -1.633066 1.738971 0
M  V30 6 C 2.983916 -0.662387 1.623987 0
M  V30 7 C 2.433629 -0.345922 2.997971 0
M  V30 8 C 3.548434 0.646274 1.051170 0
M  V30 9 C 1.924072 -1.056393 0.668398 0
M  V30 10 C 0.904384 -0.159213 0.426339 0
M  V30 11 C -0.100731 -0.522457 -0.474365 0
M  V30 12 N -1.150954 0.447637 -0.699254 0
M  V30 13 C -2.187376 0.221822 0.231550 0
M  V30 14 O -2.012411 -0.727613 1.036567 0
M  V30 15 C -3.420784 0.994464 0.324680 0
M  V30 16 C -4.314993 0.616571 1.306383 0
M  V30 17 C -5.515618 1.316842 1.447517 0
M  V30 18 C -5.828218 2.394754 0.611437 0
M  V30 19 C -7.072837 3.143199 0.735801 0
M  V30 20 O -7.331549 4.121944 -0.040605 0
M  V30 21 O -7.959781 2.736299 1.740794 0
M  V30 22 C -4.879655 2.703510 -0.340169 0
M  V30 23 C -3.679208 2.049061 -0.525838 0
M  V30 24 C -0.098833 -1.760379 -1.129994 0
M  V30 25 C 0.964351 -2.617817 -0.836210 0
M  V30 26 C 1.947654 -2.277901 0.036749 0
M  V30 27 H 3.463863 -4.610436 1.873044 0
M  V30 28 H 1.790301 -4.893583 1.115672 0
M  V30 29 H 2.093171 -3.524666 2.215577 0
M  V30 30 H 4.170161 -4.724614 -0.815161 0
M  V30 31 H 3.244466 -3.657569 -1.910885 0
M  V30 32 H 2.390049 -4.966174 -0.926963 0
M  V30 33 H 5.046783 -3.296557 0.828073 0
M  V30 34 H 4.586791 -1.992603 -0.310706 0
M  V30 35 H 5.077465 -1.118905 1.873367 0
M  V30 36 H 3.989241 -2.288380 2.650974 0
M  V30 37 H 1.348235 -0.093842 2.953838 0
M  V30 38 H 2.512277 -1.221551 3.699637 0
M  V30 39 H 3.023805 0.458314 3.514477 0
M  V30 40 H 2.793971 1.449182 1.127574 0
M  V30 41 H 3.729570 0.400849 -0.032088 0
M  V30 42 H 4.477579 0.939263 1.566528 0
M  V30 43 H 0.863371 0.813811 0.913833 0
M  V30 44 H -1.269475 1.230233 -1.380453 0
M  V30 45 H -4.142438 -0.203182 1.986922 0
M  V30 46 H -6.266547 1.073780 2.199524 0
M  V30 47 H -8.785979 3.332068 1.883494 0
M  V30 48 H -5.132052 3.552027 -0.993985 0
M  V30 49 H -2.977280 2.342617 -1.293452 0
M  V30 50 H -0.908264 -1.990821 -1.822391 0
M  V30 51 H 0.886686 -3.565007 -1.393575 0
M  V30 END ATOM
M  V30 BEGIN BOND
M  V30 1 1 1 2
M  V30 2 1 2 3
M  V30 3 1 2 4
M  V30 4 1 4 5
M  V30 5 1 5 6
M  V30 6 1 6 7
M  V30 7 1 6 8
M  V30 8 1 6 9
M  V30 9 2 9 10
M  V30 10 1 10 11
M  V30 11 1 11 12
M  V30 12 1 12 13
M  V30 13 2 13 14
M  V30 14 1 13 15
M  V30 15 2 15 16
M  V30 16 1 16 17
M  V30 17 2 17 18
M  V30 18 1 18 19
M  V30 19 2 19 20
M  V30 20 1 19 21
M  V30 21 1 18 22
M  V30 22 2 22 23
M  V30 23 2 11 24
M  V30 24 1 24 25
M  V30 25 2 25 26
M  V30 26 1 26 2
M  V30 27 1 26 9
M  V30 28 1 23 15
M  V30 29 1 1 27
M  V30 30 1 1 28
M  V30 31 1 1 29
M  V30 32 1 3 30
M  V30 33 1 3 31
M  V30 34 1 3 32
M  V30 35 1 4 33
M  V30 36 1 4 34
M  V30 37 1 5 35
M  V30 38 1 5 36
M  V30 39 1 7 37
M  V30 40 1 7 38
M  V30 41 1 7 39
M  V30 42 1 8 40
M  V30 43 1 8 41
M  V30 44 1 8 42
M  V30 45 1 10 43
M  V30 46 1 12 44
M  V30 47 1 16 45
M  V30 48 1 17 46
M  V30 49 1 21 47
M  V30 50 1 22 48
M  V30 51 1 23 49
M  V30 52 1 24 50
M  V30 53 1 25 51
M  V30 END BOND
M  V30 END CTAB
M  END
>  <Dataset>  (936) 
OralDrugs

>  <Ligand_Instance>  (936) 
nan

>  <PDB_ID>  (936) 
nan

>  <Standardized_SMILES>  (936) 
CC1(C)CCC(C)(C)c2cc(NC(=O)c3ccc(C(=O)O)cc3)ccc21

>  <Name>  (936) 
Tamibarotene

>  <Pocket>  (936) 
nan

>  <ATP_Site>  (936) 
nan

>  <Peripheral>  (936) 
nan

>  <Num_H_Atoms_ProtBoundConf>  (936) 
nan

>  <Num_Resolved_Atoms>  (936) 
nan

>  <Num_Not_Resolved_Atoms>  (936) 
nan

$$$$
CHEMBL836
     RDKit          3D

  0  0  0  0  0  0  0  0  0  0999 V3000
M  V30 BEGIN CTAB
M  V30 COUNTS 56 57 0 0 0
M  V30 BEGIN ATOM
M  V30 1 C -2.481025 -2.267577 3.658228 0
M  V30 2 C -1.044860 -2.634898 3.430505 0
M  V30 3 O -0.229385 -1.533158 3.173910 0
M  V30 4 C 1.137734 -1.684672 2.939161 0
M  V30 5 C 1.572204 -3.007967 2.990462 0
M  V30 6 C 2.902989 -3.308204 2.776528 0
M  V30 7 C 3.801521 -2.302200 2.513226 0
M  V30 8 C 3.307096 -1.024773 2.477827 0
M  V30 9 C 2.008743 -0.628827 2.675405 0
M  V30 10 O 1.371774 0.547134 2.672455 0
M  V30 11 C 1.772285 1.850788 2.441128 0
M  V30 12 C 2.262344 1.988872 1.015980 0
M  V30 13 N 1.324472 1.677476 0.005007 0
M  V30 14 C 0.240408 2.546750 -0.196548 0 CFG=2
M  V30 15 C -0.764831 2.713189 0.892328 0
M  V30 16 C -0.435546 2.268890 -1.533539 0
M  V30 17 C -0.963000 0.894268 -1.650538 0
M  V30 18 C -2.240731 0.546831 -1.274269 0
M  V30 19 C -2.785470 -0.716917 -1.361001 0
M  V30 20 C -2.007182 -1.738058 -1.863566 0
M  V30 21 O -2.476912 -3.038864 -1.985356 0
M  V30 22 C -3.825343 -3.282462 -1.559793 0
M  V30 23 C -0.698768 -1.432061 -2.260304 0
M  V30 24 S 0.256824 -2.748922 -2.899776 0
M  V30 25 N -0.464605 -3.419823 -4.287819 0
M  V30 26 O 0.379040 -3.859453 -1.871118 0
M  V30 27 O 1.644635 -2.269243 -3.207776 0
M  V30 28 C -0.176196 -0.136814 -2.158529 0
M  V30 29 H -2.646269 -1.575561 4.510130 0
M  V30 30 H -3.028140 -3.241315 3.819047 0
M  V30 31 H -2.938233 -1.773817 2.767512 0
M  V30 32 H -1.029135 -3.334519 2.567436 0
M  V30 33 H -0.676103 -3.112391 4.365096 0
M  V30 34 H 0.939628 -3.850330 3.189767 0
M  V30 35 H 3.268379 -4.315492 2.809284 0
M  V30 36 H 4.849133 -2.480748 2.338756 0
M  V30 37 H 4.011259 -0.238385 2.287999 0
M  V30 38 H 1.025192 2.600651 2.734185 0
M  V30 39 H 2.657689 2.036930 3.148026 0
M  V30 40 H 3.192310 1.390957 0.923403 0
M  V30 41 H 2.667651 3.060954 0.878287 0
M  V30 42 H 1.829736 1.559956 -0.898967 0
M  V30 43 H 0.693101 3.586941 -0.323309 0
M  V30 44 H -0.891094 1.875960 1.575066 0
M  V30 45 H -0.619594 3.649527 1.482203 0
M  V30 46 H -1.750055 2.930261 0.354844 0
M  V30 47 H -1.260390 3.033201 -1.593685 0
M  V30 48 H 0.264392 2.503149 -2.348526 0
M  V30 49 H -2.922927 1.268856 -0.874416 0
M  V30 50 H -3.787445 -0.962957 -1.060240 0
M  V30 51 H -3.880277 -2.963796 -0.484005 0
M  V30 52 H -4.131281 -4.317912 -1.694622 0
M  V30 53 H -4.485212 -2.556358 -2.119957 0
M  V30 54 H 0.070707 -3.341826 -5.157312 0
M  V30 55 H -1.015796 -4.271587 -4.147433 0
M  V30 56 H 0.828069 0.034484 -2.477942 0
M  V30 END ATOM
M  V30 BEGIN BOND
M  V30 1 1 1 2
M  V30 2 1 2 3
M  V30 3 1 3 4
M  V30 4 2 4 5
M  V30 5 1 5 6
M  V30 6 2 6 7
M  V30 7 1 7 8
M  V30 8 2 8 9
M  V30 9 1 9 10
M  V30 10 1 10 11
M  V30 11 1 11 12
M  V30 12 1 12 13
M  V30 13 1 13 14
M  V30 14 1 14 15
M  V30 15 1 14 16
M  V30 16 1 16 17
M  V30 17 2 17 18
M  V30 18 1 18 19
M  V30 19 2 19 20
M  V30 20 1 20 21
M  V30 21 1 21 22
M  V30 22 1 20 23
M  V30 23 1 23 24
M  V30 24 1 24 25
M  V30 25 2 24 26
M  V30 26 2 24 27
M  V30 27 2 23 28
M  V30 28 1 9 4
M  V30 29 1 28 17
M  V30 30 1 1 29
M  V30 31 1 1 30
M  V30 32 1 1 31
M  V30 33 1 2 32
M  V30 34 1 2 33
M  V30 35 1 5 34
M  V30 36 1 6 35
M  V30 37 1 7 36
M  V30 38 1 8 37
M  V30 39 1 11 38
M  V30 40 1 11 39
M  V30 41 1 12 40
M  V30 42 1 12 41
M  V30 43 1 13 42
M  V30 44 1 14 43 CFG=3
M  V30 45 1 15 44
M  V30 46 1 15 45
M  V30 47 1 15 46
M  V30 48 1 16 47
M  V30 49 1 16 48
M  V30 50 1 18 49
M  V30 51 1 19 50
M  V30 52 1 22 51
M  V30 53 1 22 52
M  V30 54 1 22 53
M  V30 55 1 25 54
M  V30 56 1 25 55
M  V30 57 1 28 56
M  V30 END BOND
M  V30 END CTAB
M  END
>  <Dataset>  (937) 
OralDrugs

>  <Ligand_Instance>  (937) 
nan

>  <PDB_ID>  (937) 
nan

>  <Standardized_SMILES>  (937) 
CCOc1ccccc1OCCN[C@H](C)Cc1ccc(OC)c(S(N)(=O)=O)c1

>  <Name>  (937) 
Tamsulosin

>  <Pocket>  (937) 
nan

>  <ATP_Site>  (937) 
nan

>  <Peripheral>  (937) 
nan

>  <Num_H_Atoms_ProtBoundConf>  (937) 
nan

>  <Num_Resolved_Atoms>  (937) 
nan

>  <Num_Not_Resolved_Atoms>  (937) 
nan

$$$$
CHEMBL1201776
     RDKit          3D

  0  0  0  0  0  0  0  0  0  0999 V3000
M  V30 BEGIN CTAB
M  V30 COUNTS 39 39 0 0 0
M  V30 BEGIN ATOM
M  V30 1 C -2.769053 -1.312813 0.885215 0
M  V30 2 C -1.640271 -0.287309 1.042134 0
M  V30 3 C -0.344163 -0.993643 0.926193 0 CFG=1
M  V30 4 C -0.197778 -1.682525 -0.384445 0
M  V30 5 C 0.536889 -2.872642 -0.319353 0
M  V30 6 C 0.782458 -3.677302 -1.438584 0
M  V30 7 C 0.262503 -3.251877 -2.650235 0
M  V30 8 C -0.461435 -2.080043 -2.713757 0
M  V30 9 O -0.975136 -1.669773 -3.937510 0
M  V30 10 C -0.705738 -1.283561 -1.612682 0
M  V30 11 C 0.882554 -0.109803 1.196775 0 CFG=1
M  V30 12 C 0.953678 1.051423 0.251481 0
M  V30 13 C 0.904621 0.324114 2.610865 0
M  V30 14 N 1.958483 1.140316 3.071858 0
M  V30 15 C 2.055149 2.483055 2.658309 0
M  V30 16 C 2.101504 0.986470 4.504300 0
M  V30 17 H -3.436893 -1.314348 1.766998 0
M  V30 18 H -2.376377 -2.334345 0.765286 0
M  V30 19 H -3.396921 -1.033397 -0.008038 0
M  V30 20 H -1.760148 0.552349 0.326465 0
M  V30 21 H -1.793115 0.129684 2.053578 0
M  V30 22 H -0.321375 -1.805796 1.719212 0
M  V30 23 H 0.968429 -3.255174 0.610863 0
M  V30 24 H 1.355016 -4.588141 -1.345904 0
M  V30 25 H 0.420658 -3.834861 -3.556096 0
M  V30 26 H -1.578183 -2.253991 -4.513077 0
M  V30 27 H -1.271725 -0.371973 -1.617477 0
M  V30 28 H 1.774212 -0.784948 0.955321 0
M  V30 29 H 0.462806 1.956297 0.596696 0
M  V30 30 H 2.040894 1.291707 0.044552 0
M  V30 31 H 0.599094 0.752104 -0.785765 0
M  V30 32 H 0.948754 -0.619431 3.247899 0
M  V30 33 H -0.105275 0.737670 2.869055 0
M  V30 34 H 1.088347 3.029023 2.589127 0
M  V30 35 H 2.575294 3.033822 3.518955 0
M  V30 36 H 2.740860 2.623081 1.824000 0
M  V30 37 H 1.981458 -0.117061 4.711768 0
M  V30 38 H 1.236798 1.463661 5.010667 0
M  V30 39 H 3.090091 1.339174 4.871465 0
M  V30 END ATOM
M  V30 BEGIN BOND
M  V30 1 1 1 2
M  V30 2 1 2 3
M  V30 3 1 3 4
M  V30 4 2 4 5
M  V30 5 1 5 6
M  V30 6 2 6 7
M  V30 7 1 7 8
M  V30 8 1 8 9
M  V30 9 2 8 10
M  V30 10 1 3 11
M  V30 11 1 11 12
M  V30 12 1 11 13
M  V30 13 1 13 14
M  V30 14 1 14 15
M  V30 15 1 14 16
M  V30 16 1 10 4
M  V30 17 1 1 17
M  V30 18 1 1 18
M  V30 19 1 1 19
M  V30 20 1 2 20
M  V30 21 1 2 21
M  V30 22 1 3 22 CFG=1
M  V30 23 1 5 23
M  V30 24 1 6 24
M  V30 25 1 7 25
M  V30 26 1 9 26
M  V30 27 1 10 27
M  V30 28 1 11 28 CFG=1
M  V30 29 1 12 29
M  V30 30 1 12 30
M  V30 31 1 12 31
M  V30 32 1 13 32
M  V30 33 1 13 33
M  V30 34 1 15 34
M  V30 35 1 15 35
M  V30 36 1 15 36
M  V30 37 1 16 37
M  V30 38 1 16 38
M  V30 39 1 16 39
M  V30 END BOND
M  V30 END CTAB
M  END
>  <Dataset>  (938) 
OralDrugs

>  <Ligand_Instance>  (938) 
nan

>  <PDB_ID>  (938) 
nan

>  <Standardized_SMILES>  (938) 
CC[C@@H](c1cccc(O)c1)[C@@H](C)CN(C)C

>  <Name>  (938) 
Tapentadol

>  <Pocket>  (938) 
nan

>  <ATP_Site>  (938) 
nan

>  <Peripheral>  (938) 
nan

>  <Num_H_Atoms_ProtBoundConf>  (938) 
nan

>  <Num_Resolved_Atoms>  (938) 
nan

>  <Num_Not_Resolved_Atoms>  (938) 
nan

$$$$
CHEMBL1200861
     RDKit          3D

  0  0  0  0  0  0  0  0  0  0999 V3000
M  V30 BEGIN CTAB
M  V30 COUNTS 16 15 0 0 0
M  V30 BEGIN ATOM
M  V30 1 O -0.073404 -0.209166 2.732309 0
M  V30 2 C 0.246569 -0.799615 1.669154 0
M  V30 3 O 0.004549 -2.164123 1.719257 0
M  V30 4 C 0.626940 0.559019 1.263210 0 CFG=1
M  V30 5 O 0.347667 1.413624 2.333045 0
M  V30 6 C 2.104306 0.604195 0.899056 0 CFG=2
M  V30 7 O 2.414425 1.888083 0.548275 0
M  V30 8 C 2.333700 -0.387640 -0.178164 0
M  V30 9 O 2.073366 -1.613740 0.053765 0
M  V30 10 O 2.815254 -0.146315 -1.460847 0
M  V30 11 H -0.931480 -2.444673 2.025349 0
M  V30 12 H 0.040590 0.825904 0.359600 0
M  V30 13 H 0.299899 2.345045 2.001203 0
M  V30 14 H 2.705515 0.322024 1.790997 0
M  V30 15 H 3.305544 2.005682 0.138888 0
M  V30 16 H 2.394470 -0.662525 -2.223548 0
M  V30 END ATOM
M  V30 BEGIN BOND
M  V30 1 2 1 2
M  V30 2 1 2 3
M  V30 3 1 2 4
M  V30 4 1 4 5
M  V30 5 1 4 6
M  V30 6 1 6 7
M  V30 7 1 6 8
M  V30 8 2 8 9
M  V30 9 1 8 10
M  V30 10 1 3 11
M  V30 11 1 4 12 CFG=3
M  V30 12 1 5 13
M  V30 13 1 6 14 CFG=1
M  V30 14 1 7 15
M  V30 15 1 10 16
M  V30 END BOND
M  V30 END CTAB
M  END
>  <Dataset>  (939) 
OralDrugs

>  <Ligand_Instance>  (939) 
nan

>  <PDB_ID>  (939) 
nan

>  <Standardized_SMILES>  (939) 
O=C(O)[C@@H](O)[C@H](O)C(=O)O

>  <Name>  (939) 
Tartaric Acid

>  <Pocket>  (939) 
nan

>  <ATP_Site>  (939) 
nan

>  <Peripheral>  (939) 
nan

>  <Num_H_Atoms_ProtBoundConf>  (939) 
nan

>  <Num_Resolved_Atoms>  (939) 
nan

>  <Num_Not_Resolved_Atoms>  (939) 
nan

$$$$
CHEMBL2103822
     RDKit          3D

  0  0  0  0  0  0  0  0  0  0999 V3000
M  V30 BEGIN CTAB
M  V30 COUNTS 37 39 0 0 0
M  V30 BEGIN ATOM
M  V30 1 C -2.905432 -1.404492 2.687053 0
M  V30 2 C -1.811995 -2.448570 2.937869 0
M  V30 3 C -1.206273 -2.713015 1.603830 0
M  V30 4 O -1.879872 -1.940051 0.839947 0
M  V30 5 N -0.132561 -3.638886 1.384322 0
M  V30 6 C 0.271896 -3.695769 0.029243 0
M  V30 7 C 0.895055 -2.454461 -0.527567 0 CFG=2
M  V30 8 C 2.211931 -2.003995 0.129011 0
M  V30 9 C 1.006249 -1.173461 0.219746 0 CFG=1
M  V30 10 C 0.854602 0.074494 -0.571460 0
M  V30 11 C 0.299169 0.230223 -1.824554 0
M  V30 12 C 0.234127 1.469718 -2.423452 0
M  V30 13 C 0.709779 2.615579 -1.823866 0
M  V30 14 C 1.258824 2.429032 -0.572999 0
M  V30 15 C 1.350274 1.195566 0.080436 0
M  V30 16 C 2.002930 1.471938 1.382133 0
M  V30 17 C 1.699273 2.928951 1.597950 0
M  V30 18 O 1.814735 3.424861 0.255073 0
M  V30 19 H -2.470130 -0.515631 2.203504 0
M  V30 20 H -3.445109 -1.226387 3.618526 0
M  V30 21 H -3.628897 -1.821377 1.944014 0
M  V30 22 H -1.108871 -1.987288 3.657964 0
M  V30 23 H -2.264287 -3.351706 3.387043 0
M  V30 24 H 0.167736 -4.112642 2.259313 0
M  V30 25 H -0.578836 -3.982616 -0.638868 0
M  V30 26 H 1.047187 -4.517404 -0.048167 0
M  V30 27 H 0.857769 -2.366421 -1.655277 0
M  V30 28 H 3.016097 -1.841063 -0.584190 0
M  V30 29 H 2.516731 -2.591918 1.027990 0
M  V30 30 H 0.559795 -1.098990 1.213656 0
M  V30 31 H -0.061328 -0.663260 -2.267756 0
M  V30 32 H -0.208851 1.529827 -3.399209 0
M  V30 33 H 0.650997 3.565349 -2.302115 0
M  V30 34 H 1.623824 0.825567 2.194124 0
M  V30 35 H 3.098484 1.372591 1.235569 0
M  V30 36 H 0.677373 3.016777 1.991035 0
M  V30 37 H 2.475253 3.442505 2.203102 0
M  V30 END ATOM
M  V30 BEGIN BOND
M  V30 1 1 1 2
M  V30 2 1 2 3
M  V30 3 2 3 4
M  V30 4 1 3 5
M  V30 5 1 5 6
M  V30 6 1 6 7
M  V30 7 1 7 8
M  V30 8 1 8 9
M  V30 9 1 9 10
M  V30 10 2 10 11
M  V30 11 1 11 12
M  V30 12 2 12 13
M  V30 13 1 13 14
M  V30 14 2 14 15
M  V30 15 1 15 16
M  V30 16 1 16 17
M  V30 17 1 17 18
M  V30 18 1 9 7
M  V30 19 1 15 10
M  V30 20 1 18 14
M  V30 21 1 1 19
M  V30 22 1 1 20
M  V30 23 1 1 21
M  V30 24 1 2 22
M  V30 25 1 2 23
M  V30 26 1 5 24
M  V30 27 1 6 25
M  V30 28 1 6 26
M  V30 29 1 7 27 CFG=3
M  V30 30 1 8 28
M  V30 31 1 8 29
M  V30 32 1 9 30 CFG=1
M  V30 33 1 11 31
M  V30 34 1 12 32
M  V30 35 1 13 33
M  V30 36 1 16 34
M  V30 37 1 16 35
M  V30 38 1 17 36
M  V30 39 1 17 37
M  V30 END BOND
M  V30 END CTAB
M  END
>  <Dataset>  (940) 
OralDrugs

>  <Ligand_Instance>  (940) 
nan

>  <PDB_ID>  (940) 
nan

>  <Standardized_SMILES>  (940) 
CCC(=O)NC[C@@H]1C[C@H]1c1cccc2c1CCO2

>  <Name>  (940) 
Tasimelteon

>  <Pocket>  (940) 
nan

>  <ATP_Site>  (940) 
nan

>  <Peripheral>  (940) 
nan

>  <Num_H_Atoms_ProtBoundConf>  (940) 
nan

>  <Num_Resolved_Atoms>  (940) 
nan

>  <Num_Not_Resolved_Atoms>  (940) 
nan

$$$$
CHEMBL272427
     RDKit          3D

  0  0  0  0  0  0  0  0  0  0999 V3000
M  V30 BEGIN CTAB
M  V30 COUNTS 79 82 0 0 0
M  V30 BEGIN ATOM
M  V30 1 C 3.268077 0.054362 0.969750 0
M  V30 2 C 2.427108 0.887480 0.045236 0 CFG=2
M  V30 3 C 2.664819 2.332770 0.391330 0
M  V30 4 C 2.281237 2.638784 1.828261 0
M  V30 5 C 2.541407 4.079970 2.096381 0
M  V30 6 O 3.012133 4.787642 1.169993 0
M  V30 7 N 2.230588 4.567826 3.417743 0
M  V30 8 C 2.490377 5.955695 3.647295 0
M  V30 9 C 2.147260 6.408174 5.034978 0
M  V30 10 S 0.430066 6.173571 5.418558 0
M  V30 11 O 0.026109 4.748363 5.309022 0
M  V30 12 O -0.443936 6.970013 4.495728 0
M  V30 13 O 0.086786 6.694956 6.987465 0
M  V30 14 C 1.007214 0.492146 -0.020013 0 CFG=1
M  V30 15 C 0.192009 1.379732 -0.954882 0
M  V30 16 C -0.817131 0.499208 -1.653041 0
M  V30 17 C -0.806319 -0.712348 -0.763346 0 CFG=1
M  V30 18 C -1.444613 -1.913347 -1.328250 0 CFG=2
M  V30 19 C -2.902367 -1.911491 -0.839656 0 CFG=1
M  V30 20 O -3.677450 -1.054289 -1.599688 0
M  V30 21 C -3.420632 -3.332251 -0.833763 0
M  V30 22 C -2.836603 -4.140778 -1.985875 0 CFG=2
M  V30 23 C -3.610608 -5.381298 -2.215789 0
M  V30 24 C -3.073208 -6.628400 -1.581703 0 CFG=2
M  V30 25 O -3.235143 -6.687010 -0.212448 0
M  V30 26 C -1.605483 -6.792344 -1.933039 0
M  V30 27 C -0.913255 -5.608333 -1.312840 0
M  V30 28 C -1.345795 -4.283542 -1.889708 0 CFG=1
M  V30 29 C -0.729172 -4.179361 -3.252898 0
M  V30 30 C -0.881804 -3.227160 -0.919289 0 CFG=1
M  V30 31 C 0.601876 -3.231409 -0.698446 0
M  V30 32 C 0.913418 -2.044373 0.232282 0
M  V30 33 C 0.724219 -0.842618 -0.602495 0 CFG=2
M  V30 34 C 1.367019 -0.949111 -1.967779 0
M  V30 35 H 4.112465 0.690625 1.400914 0
M  V30 36 H 3.773442 -0.765967 0.412683 0
M  V30 37 H 2.732140 -0.363561 1.832886 0
M  V30 38 H 2.867463 0.754218 -0.978760 0
M  V30 39 H 3.762719 2.499866 0.324392 0
M  V30 40 H 2.206467 3.052191 -0.315902 0
M  V30 41 H 1.238065 2.360650 2.062668 0
M  V30 42 H 2.925844 2.087953 2.543406 0
M  V30 43 H 1.843063 3.899560 4.118540 0
M  V30 44 H 1.986148 6.651050 2.948551 0
M  V30 45 H 3.576701 6.119291 3.507373 0
M  V30 46 H 2.724955 5.866230 5.818115 0
M  V30 47 H 2.364112 7.481310 5.178824 0
M  V30 48 H -0.692442 7.292582 7.019715 0
M  V30 49 H 0.546269 0.558905 0.985829 0
M  V30 50 H -0.413433 2.124459 -0.360236 0
M  V30 51 H 0.781465 1.884083 -1.716453 0
M  V30 52 H -0.492520 0.191355 -2.665677 0
M  V30 53 H -1.814105 0.975043 -1.723915 0
M  V30 54 H -1.216903 -0.417771 0.204305 0
M  V30 55 H -1.548083 -1.788206 -2.443531 0
M  V30 56 H -2.840089 -1.600597 0.218079 0
M  V30 57 H -4.448086 -0.745407 -1.083257 0
M  V30 58 H -4.526705 -3.279700 -1.046480 0
M  V30 59 H -3.339305 -3.836834 0.140758 0
M  V30 60 H -3.029327 -3.486166 -2.886383 0
M  V30 61 H -4.626620 -5.222790 -1.747307 0
M  V30 62 H -3.825416 -5.577504 -3.296220 0
M  V30 63 H -3.606649 -7.492243 -2.031506 0
M  V30 64 H -3.945072 -7.321089 0.037174 0
M  V30 65 H -1.446327 -6.883636 -3.013113 0
M  V30 66 H -1.221994 -7.692146 -1.442640 0
M  V30 67 H 0.180315 -5.707090 -1.561349 0
M  V30 68 H -1.047603 -5.639731 -0.229595 0
M  V30 69 H -0.683784 -3.165963 -3.673547 0
M  V30 70 H 0.234508 -4.722134 -3.354363 0
M  V30 71 H -1.435393 -4.738602 -3.934684 0
M  V30 72 H -1.324741 -3.523912 0.068297 0
M  V30 73 H 0.851545 -4.127096 -0.089993 0
M  V30 74 H 1.219907 -3.101329 -1.583691 0
M  V30 75 H 0.158809 -2.015010 1.060424 0
M  V30 76 H 1.923467 -2.189461 0.607270 0
M  V30 77 H 0.692974 -1.468616 -2.680896 0
M  V30 78 H 1.516755 0.089371 -2.348516 0
M  V30 79 H 2.357253 -1.433694 -1.857457 0
M  V30 END ATOM
M  V30 BEGIN BOND
M  V30 1 1 1 2
M  V30 2 1 2 3
M  V30 3 1 3 4
M  V30 4 1 4 5
M  V30 5 2 5 6
M  V30 6 1 5 7
M  V30 7 1 7 8
M  V30 8 1 8 9
M  V30 9 1 9 10
M  V30 10 2 10 11
M  V30 11 2 10 12
M  V30 12 1 10 13
M  V30 13 1 2 14
M  V30 14 1 14 15
M  V30 15 1 15 16
M  V30 16 1 16 17
M  V30 17 1 17 18
M  V30 18 1 18 19
M  V30 19 1 19 20
M  V30 20 1 19 21
M  V30 21 1 21 22
M  V30 22 1 22 23
M  V30 23 1 23 24
M  V30 24 1 24 25
M  V30 25 1 24 26
M  V30 26 1 26 27
M  V30 27 1 27 28
M  V30 28 1 28 29 CFG=3
M  V30 29 1 28 30
M  V30 30 1 30 31
M  V30 31 1 31 32
M  V30 32 1 32 33
M  V30 33 1 33 34 CFG=3
M  V30 34 1 33 14
M  V30 35 1 33 17
M  V30 36 1 30 18
M  V30 37 1 28 22
M  V30 38 1 1 35
M  V30 39 1 1 36
M  V30 40 1 1 37
M  V30 41 1 2 38 CFG=3
M  V30 42 1 3 39
M  V30 43 1 3 40
M  V30 44 1 4 41
M  V30 45 1 4 42
M  V30 46 1 7 43
M  V30 47 1 8 44
M  V30 48 1 8 45
M  V30 49 1 9 46
M  V30 50 1 9 47
M  V30 51 1 13 48
M  V30 52 1 14 49 CFG=1
M  V30 53 1 15 50
M  V30 54 1 15 51
M  V30 55 1 16 52
M  V30 56 1 16 53
M  V30 57 1 17 54 CFG=1
M  V30 58 1 18 55 CFG=3
M  V30 59 1 19 56 CFG=1
M  V30 60 1 20 57
M  V30 61 1 21 58
M  V30 62 1 21 59
M  V30 63 1 22 60 CFG=3
M  V30 64 1 23 61
M  V30 65 1 23 62
M  V30 66 1 24 63 CFG=3
M  V30 67 1 25 64
M  V30 68 1 26 65
M  V30 69 1 26 66
M  V30 70 1 27 67
M  V30 71 1 27 68
M  V30 72 1 29 69
M  V30 73 1 29 70
M  V30 74 1 29 71
M  V30 75 1 30 72 CFG=1
M  V30 76 1 31 73
M  V30 77 1 31 74
M  V30 78 1 32 75
M  V30 79 1 32 76
M  V30 80 1 34 77
M  V30 81 1 34 78
M  V30 82 1 34 79
M  V30 END BOND
M  V30 END CTAB
M  END
>  <Dataset>  (941) 
OralDrugs

>  <Ligand_Instance>  (941) 
nan

>  <PDB_ID>  (941) 
nan

>  <Standardized_SMILES>  (941) 
C[C@H](CCC(=O)NCCS(=O)(=O)O)[C@H]1CC[C@H]2[C@@H]3[C@@H](O)C[C@@H]4C[C@H](O)CC[C@]4(C)[C@H]3CC[C@]12C

>  <Name>  (941) 
Taurursodiol

>  <Pocket>  (941) 
nan

>  <ATP_Site>  (941) 
nan

>  <Peripheral>  (941) 
nan

>  <Num_H_Atoms_ProtBoundConf>  (941) 
nan

>  <Num_Resolved_Atoms>  (941) 
nan

>  <Num_Not_Resolved_Atoms>  (941) 
nan

$$$$
CHEMBL3414621
     RDKit          3D

  0  0  0  0  0  0  0  0  0  0999 V3000
M  V30 BEGIN CTAB
M  V30 COUNTS 86 90 0 0 0
M  V30 BEGIN ATOM
M  V30 1 C -0.061021 3.112651 4.078975 0
M  V30 2 C 0.646099 1.800962 4.182217 0
M  V30 3 N 1.624295 1.640373 3.094261 0
M  V30 4 C 1.360779 0.648740 2.109070 0
M  V30 5 C 1.199768 0.922826 0.766986 0
M  V30 6 C 0.945107 -0.055762 -0.169375 0
M  V30 7 C 0.773526 0.195913 -1.595513 0
M  V30 8 C 1.407961 1.201252 -2.304304 0
M  V30 9 C 1.199941 1.378415 -3.657192 0
M  V30 10 C 0.347430 0.559334 -4.369657 0
M  V30 11 C 0.119907 0.743905 -5.828854 0
M  V30 12 N -0.975027 1.640013 -6.029042 0
M  V30 13 C -1.305906 1.914497 -7.397441 0
M  V30 14 C -2.253233 3.110021 -7.384481 0
M  V30 15 O -3.414572 2.703169 -6.735132 0
M  V30 16 C -3.127368 2.483606 -5.409863 0
M  V30 17 C -2.112124 1.380043 -5.199424 0
M  V30 18 C -0.297785 -0.452250 -3.682998 0
M  V30 19 C -0.085999 -0.624611 -2.329749 0
M  V30 20 C 0.843585 -1.377874 0.243528 0
M  V30 21 C 1.001618 -1.670092 1.582249 0
M  V30 22 C 0.873239 -3.105365 1.928644 0
M  V30 23 O 1.793071 -3.882285 2.351260 0
M  V30 24 N -0.423841 -3.714937 1.780214 0
M  V30 25 C -0.676340 -5.109883 2.085430 0
M  V30 26 C -2.132310 -5.377255 1.808839 0
M  V30 27 C -2.465775 -5.491682 0.481668 0
M  V30 28 C -1.497287 -5.370427 -0.645518 0
M  V30 29 C -3.792746 -5.734016 0.211470 0
M  V30 30 C -4.732363 -5.854146 1.230572 0
M  V30 31 C -6.166196 -6.115577 0.961073 0
M  V30 32 N -4.352031 -5.733465 2.513422 0
M  V30 33 C -3.065685 -5.497320 2.803516 0
M  V30 34 O -2.720291 -5.386117 4.004249 0
M  V30 35 C 1.255632 -0.667700 2.492127 0
M  V30 36 C 1.395888 -1.155511 3.882319 0
M  V30 37 C 2.676946 2.603003 3.323781 0
M  V30 38 C 3.353460 2.435822 4.671263 0
M  V30 39 C 4.815777 2.749037 4.530177 0
M  V30 40 O 5.490195 1.881250 3.706618 0
M  V30 41 C 4.813506 1.555841 2.549623 0
M  V30 42 C 3.757591 2.604583 2.281716 0
M  V30 43 H 0.473281 3.859449 4.720256 0
M  V30 44 H -1.087226 2.997723 4.486770 0
M  V30 45 H -0.123601 3.435967 3.026511 0
M  V30 46 H -0.045630 0.931562 4.179218 0
M  V30 47 H 1.158581 1.754835 5.168394 0
M  V30 48 H 1.268590 1.936644 0.412932 0
M  V30 49 H 2.070422 1.843068 -1.765824 0
M  V30 50 H 1.712720 2.180915 -4.199195 0
M  V30 51 H 1.012451 1.063630 -6.364342 0
M  V30 52 H -0.183730 -0.252003 -6.225211 0
M  V30 53 H -1.789055 1.056365 -7.902572 0
M  V30 54 H -0.393022 2.231520 -7.924552 0
M  V30 55 H -1.781317 3.904765 -6.771829 0
M  V30 56 H -2.457836 3.454676 -8.414115 0
M  V30 57 H -4.066491 2.246093 -4.852924 0
M  V30 58 H -2.751149 3.440640 -4.981591 0
M  V30 59 H -2.631384 0.431640 -5.408342 0
M  V30 60 H -1.799079 1.449967 -4.133088 0
M  V30 61 H -0.974143 -1.102082 -4.248333 0
M  V30 62 H -0.647386 -1.452089 -1.895360 0
M  V30 63 H 0.641562 -2.165422 -0.489828 0
M  V30 64 H -1.204527 -3.082446 1.429432 0
M  V30 65 H -0.109059 -5.802332 1.451966 0
M  V30 66 H -0.442733 -5.347422 3.131590 0
M  V30 67 H -0.575767 -4.811627 -0.325957 0
M  V30 68 H -1.931062 -4.887293 -1.539298 0
M  V30 69 H -1.228329 -6.406857 -0.934208 0
M  V30 70 H -4.125846 -5.834927 -0.794758 0
M  V30 71 H -6.513520 -6.923757 1.640764 0
M  V30 72 H -6.716610 -5.173684 1.160680 0
M  V30 73 H -6.349183 -6.385703 -0.096830 0
M  V30 74 H -5.047513 -5.821670 3.291224 0
M  V30 75 H 0.418458 -1.509278 4.274941 0
M  V30 76 H 2.044886 -2.075489 3.876845 0
M  V30 77 H 1.880337 -0.454313 4.560389 0
M  V30 78 H 2.212473 3.610823 3.319724 0
M  V30 79 H 2.909682 3.136562 5.422168 0
M  V30 80 H 3.234948 1.434349 5.102947 0
M  V30 81 H 5.262564 2.611947 5.560773 0
M  V30 82 H 4.977332 3.815587 4.268551 0
M  V30 83 H 4.355949 0.548768 2.609352 0
M  V30 84 H 5.507671 1.523596 1.686159 0
M  V30 85 H 4.278070 3.601809 2.370901 0
M  V30 86 H 3.405279 2.568511 1.246324 0
M  V30 END ATOM
M  V30 BEGIN BOND
M  V30 1 1 1 2
M  V30 2 1 2 3
M  V30 3 1 3 4
M  V30 4 2 4 5
M  V30 5 1 5 6
M  V30 6 1 6 7
M  V30 7 2 7 8
M  V30 8 1 8 9
M  V30 9 2 9 10
M  V30 10 1 10 11
M  V30 11 1 11 12
M  V30 12 1 12 13
M  V30 13 1 13 14
M  V30 14 1 14 15
M  V30 15 1 15 16
M  V30 16 1 16 17
M  V30 17 1 10 18
M  V30 18 2 18 19
M  V30 19 2 6 20
M  V30 20 1 20 21
M  V30 21 1 21 22
M  V30 22 2 22 23
M  V30 23 1 22 24
M  V30 24 1 24 25
M  V30 25 1 25 26
M  V30 26 2 26 27
M  V30 27 1 27 28
M  V30 28 1 27 29
M  V30 29 2 29 30
M  V30 30 1 30 31
M  V30 31 1 30 32
M  V30 32 1 32 33
M  V30 33 2 33 34
M  V30 34 2 21 35
M  V30 35 1 35 36
M  V30 36 1 3 37
M  V30 37 1 37 38
M  V30 38 1 38 39
M  V30 39 1 39 40
M  V30 40 1 40 41
M  V30 41 1 41 42
M  V30 42 1 35 4
M  V30 43 1 42 37
M  V30 44 1 19 7
M  V30 45 1 33 26
M  V30 46 1 17 12
M  V30 47 1 1 43
M  V30 48 1 1 44
M  V30 49 1 1 45
M  V30 50 1 2 46
M  V30 51 1 2 47
M  V30 52 1 5 48
M  V30 53 1 8 49
M  V30 54 1 9 50
M  V30 55 1 11 51
M  V30 56 1 11 52
M  V30 57 1 13 53
M  V30 58 1 13 54
M  V30 59 1 14 55
M  V30 60 1 14 56
M  V30 61 1 16 57
M  V30 62 1 16 58
M  V30 63 1 17 59
M  V30 64 1 17 60
M  V30 65 1 18 61
M  V30 66 1 19 62
M  V30 67 1 20 63
M  V30 68 1 24 64
M  V30 69 1 25 65
M  V30 70 1 25 66
M  V30 71 1 28 67
M  V30 72 1 28 68
M  V30 73 1 28 69
M  V30 74 1 29 70
M  V30 75 1 31 71
M  V30 76 1 31 72
M  V30 77 1 31 73
M  V30 78 1 32 74
M  V30 79 1 36 75
M  V30 80 1 36 76
M  V30 81 1 36 77
M  V30 82 1 37 78
M  V30 83 1 38 79
M  V30 84 1 38 80
M  V30 85 1 39 81
M  V30 86 1 39 82
M  V30 87 1 41 83
M  V30 88 1 41 84
M  V30 89 1 42 85
M  V30 90 1 42 86
M  V30 END BOND
M  V30 END CTAB
M  END
>  <Dataset>  (942) 
OralDrugs

>  <Ligand_Instance>  (942) 
nan

>  <PDB_ID>  (942) 
nan

>  <Standardized_SMILES>  (942) 
CCN(c1cc(-c2ccc(CN3CCOCC3)cc2)cc(C(=O)NCc2c(C)cc(C)[nH]c2=O)c1C)C1CCOCC1

>  <Name>  (942) 
Tazemetostat

>  <Pocket>  (942) 
nan

>  <ATP_Site>  (942) 
nan

>  <Peripheral>  (942) 
nan

>  <Num_H_Atoms_ProtBoundConf>  (942) 
nan

>  <Num_Resolved_Atoms>  (942) 
nan

>  <Num_Not_Resolved_Atoms>  (942) 
nan

$$$$
CHEMBL1257073
     RDKit          3D

  0  0  0  0  0  0  0  0  0  0999 V3000
M  V30 BEGIN CTAB
M  V30 COUNTS 42 46 0 0 0
M  V30 BEGIN ATOM
M  V30 1 O 0.204293 -1.843218 2.036463 0
M  V30 2 C -0.821396 -1.704756 1.321553 0
M  V30 3 N -0.721829 -0.653419 0.381306 0
M  V30 4 N 0.415436 0.167312 0.250167 0
M  V30 5 C 1.420599 -0.289132 -0.678390 0
M  V30 6 O 1.567744 -1.348919 -1.324253 0
M  V30 7 C 2.422309 0.756166 -0.833349 0 CFG=2
M  V30 8 C 3.722190 0.475445 -0.066104 0 CFG=2
M  V30 9 C 3.529722 0.831652 1.386891 0
M  V30 10 C 3.215723 2.122204 1.607575 0
M  V30 11 C 2.857680 2.816830 0.335700 0 CFG=1
M  V30 12 C 4.081454 2.803391 -0.580650 0 CFG=1
M  V30 13 C 5.374086 2.510873 0.075366 0
M  V30 14 C 4.723299 1.425235 -0.646970 0 CFG=1
M  V30 15 C 1.738194 1.980014 -0.250478 0 CFG=2
M  V30 16 C 0.859650 1.403710 0.828679 0
M  V30 17 O 0.424000 1.655373 2.003139 0
M  V30 18 C -2.004973 -2.552193 1.451653 0
M  V30 19 C -3.155091 -2.446491 0.697072 0
M  V30 20 C -4.229092 -3.290473 0.886209 0
M  V30 21 C -4.192109 -4.284078 1.849304 0
M  V30 22 C -5.374391 -5.167472 2.014204 0
M  V30 23 F -6.143550 -5.106378 0.845654 0
M  V30 24 F -6.122138 -4.774437 3.116497 0
M  V30 25 F -4.990248 -6.488010 2.164892 0
M  V30 26 C -3.047499 -4.393246 2.604039 0
M  V30 27 C -1.966645 -3.546395 2.416083 0
M  V30 28 H -1.543929 -0.467568 -0.262688 0
M  V30 29 H 2.705558 0.912507 -1.905232 0
M  V30 30 H 3.967819 -0.587624 -0.189409 0
M  V30 31 H 3.624963 0.136504 2.240196 0
M  V30 32 H 3.207139 2.638274 2.556392 0
M  V30 33 H 2.588367 3.876844 0.474233 0
M  V30 34 H 4.001088 3.282204 -1.559417 0
M  V30 35 H 5.397900 2.587620 1.186603 0
M  V30 36 H 6.312683 2.895337 -0.367987 0
M  V30 37 H 5.158557 1.075874 -1.609260 0
M  V30 38 H 1.141358 2.513638 -1.015744 0
M  V30 39 H -3.178732 -1.669591 -0.052959 0
M  V30 40 H -5.095150 -3.137007 0.247963 0
M  V30 41 H -3.088324 -5.197495 3.343329 0
M  V30 42 H -1.121821 -3.711649 3.053439 0
M  V30 END ATOM
M  V30 BEGIN BOND
M  V30 1 2 1 2
M  V30 2 1 2 3
M  V30 3 1 3 4
M  V30 4 1 4 5
M  V30 5 2 5 6
M  V30 6 1 5 7
M  V30 7 1 7 8
M  V30 8 1 8 9
M  V30 9 2 9 10
M  V30 10 1 10 11
M  V30 11 1 11 12
M  V30 12 1 12 13
M  V30 13 1 13 14
M  V30 14 1 11 15
M  V30 15 1 15 16
M  V30 16 2 16 17
M  V30 17 1 2 18
M  V30 18 2 18 19
M  V30 19 1 19 20
M  V30 20 2 20 21
M  V30 21 1 21 22
M  V30 22 1 22 23
M  V30 23 1 22 24
M  V30 24 1 22 25
M  V30 25 1 21 26
M  V30 26 2 26 27
M  V30 27 1 16 4
M  V30 28 1 27 18
M  V30 29 1 15 7
M  V30 30 1 14 8
M  V30 31 1 14 12
M  V30 32 1 3 28
M  V30 33 1 7 29 CFG=3
M  V30 34 1 8 30 CFG=1
M  V30 35 1 9 31
M  V30 36 1 10 32
M  V30 37 1 11 33 CFG=1
M  V30 38 1 12 34 CFG=3
M  V30 39 1 13 35
M  V30 40 1 13 36
M  V30 41 1 14 37 CFG=3
M  V30 42 1 15 38 CFG=3
M  V30 43 1 19 39
M  V30 44 1 20 40
M  V30 45 1 26 41
M  V30 46 1 27 42
M  V30 END BOND
M  V30 END CTAB
M  END
>  <Dataset>  (943) 
OralDrugs

>  <Ligand_Instance>  (943) 
nan

>  <PDB_ID>  (943) 
nan

>  <Standardized_SMILES>  (943) 
O=C(NN1C(=O)[C@@H]2[C@@H]3C=C[C@@H]([C@H]4C[C@@H]34)[C@@H]2C1=O)c1ccc(C(F)(F)F)cc1

>  <Name>  (943) 
Tecovirimat

>  <Pocket>  (943) 
nan

>  <ATP_Site>  (943) 
nan

>  <Peripheral>  (943) 
nan

>  <Num_H_Atoms_ProtBoundConf>  (943) 
nan

>  <Num_Resolved_Atoms>  (943) 
nan

>  <Num_Not_Resolved_Atoms>  (943) 
nan

$$$$
CHEMBL1136
     RDKit          3D

  0  0  0  0  0  0  0  0  0  0999 V3000
M  V30 BEGIN CTAB
M  V30 COUNTS 123 127 0 0 0
M  V30 BEGIN ATOM
M  V30 1 C -0.956860 1.547381 -5.379871 0
M  V30 2 C -0.712945 0.825799 -4.114772 0
M  V30 3 C -1.870502 0.544155 -3.214402 0 CFG=1
M  V30 4 O -1.366793 -0.139265 -2.115062 0
M  V30 5 C -1.437829 -1.372939 -1.639012 0
M  V30 6 O -2.170585 -1.787433 -2.604939 0
M  V30 7 C -1.072348 -2.349953 -0.593066 0 CFG=2
M  V30 8 C -1.815333 -1.931724 0.669175 0
M  V30 9 C 0.371710 -2.551084 -0.384795 0
M  V30 10 O 0.597162 -3.530312 -1.157011 0
M  V30 11 C 1.669455 -2.219783 0.241335 0 CFG=2
M  V30 12 C 1.600862 -2.476860 1.738408 0
M  V30 13 C 2.341564 -0.957957 -0.167180 0 CFG=1
M  V30 14 O 2.364862 -0.894142 -1.520845 0
M  V30 15 C 3.583012 -1.048232 -2.136630 0 CFG=2
M  V30 16 O 3.983014 0.148503 -2.675892 0
M  V30 17 C 3.968368 0.199883 -4.035683 0 CFG=2
M  V30 18 C 2.652139 -0.053322 -4.674059 0
M  V30 19 C 5.092627 -0.676862 -4.553954 0
M  V30 20 C 5.028953 -2.030567 -3.895062 0 CFG=2
M  V30 21 N 5.075324 -3.101809 -4.886956 0
M  V30 22 C 6.311552 -2.973398 -5.643855 0
M  V30 23 C 5.128154 -4.409405 -4.267921 0
M  V30 24 C 3.765271 -2.166525 -3.055429 0 CFG=1
M  V30 25 O 3.988460 -3.349287 -2.294767 0
M  V30 26 C 2.092680 0.327564 0.612169 0 CFG=2
M  V30 27 C 3.202633 1.273265 0.267341 0
M  V30 28 O 2.303915 -0.176149 1.880478 0
M  V30 29 C 2.199779 0.412713 3.028348 0
M  V30 30 C 0.711248 0.868623 0.490358 0
M  V30 31 C 0.261102 2.214195 0.737100 0 CFG=1
M  V30 32 C 0.540250 3.007300 1.946396 0
M  V30 33 C 0.024184 3.061422 -0.515235 0
M  V30 34 O 1.054099 3.615038 -0.945696 0
M  V30 35 C -1.275510 3.294214 -1.264359 0 CFG=2
M  V30 36 C -1.970807 4.522900 -0.684523 0
M  V30 37 C -2.178560 2.103168 -1.279589 0 CFG=1
M  V30 38 N -3.445541 2.338549 -0.564735 0
M  V30 39 C -3.826839 2.731615 0.776403 0
M  V30 40 C -4.116582 1.548297 1.704935 0
M  V30 41 C -4.522861 2.062980 3.070924 0
M  V30 42 C -4.833527 0.917676 3.966113 0
M  V30 43 N -3.762443 -0.003100 4.203827 0
M  V30 44 C -3.505633 -1.090028 3.467298 0
M  V30 45 N -2.433291 -1.667635 4.033915 0
M  V30 46 C -2.035290 -0.956910 5.094551 0
M  V30 47 C -0.894344 -1.341813 5.910766 0
M  V30 48 C -0.193733 -2.486143 5.578330 0
M  V30 49 C 0.901030 -2.855434 6.359677 0
M  V30 50 C 1.231196 -2.052037 7.434192 0
M  V30 51 N 0.538634 -0.948226 7.737824 0
M  V30 52 C -0.525409 -0.586209 6.981267 0
M  V30 53 C -2.876500 0.119133 5.222590 0
M  V30 54 C -4.500522 2.114199 -1.540687 0
M  V30 55 O -5.646775 2.700061 -1.531754 0
M  V30 56 O -3.909784 1.169063 -2.372155 0
M  V30 57 C -2.627908 1.694736 -2.667421 0 CFG=2
M  V30 58 C -2.898141 2.829103 -3.585141 0
M  V30 59 H -1.999681 1.672720 -5.695704 0
M  V30 60 H -0.354106 2.505183 -5.428158 0
M  V30 61 H -0.504330 0.991017 -6.262634 0
M  V30 62 H -0.355435 -0.211731 -4.405132 0
M  V30 63 H 0.161447 1.258378 -3.588379 0
M  V30 64 H -2.542286 -0.113838 -3.787626 0
M  V30 65 H -1.552785 -3.305733 -0.838737 0
M  V30 66 H -2.851519 -2.328893 0.569404 0
M  V30 67 H -1.412449 -2.437350 1.554558 0
M  V30 68 H -1.992218 -0.853347 0.752595 0
M  V30 69 H 2.396830 -3.011347 -0.016715 0
M  V30 70 H 2.604648 -2.490212 2.207087 0
M  V30 71 H 1.286646 -3.568738 1.795733 0
M  V30 72 H 0.818608 -1.983477 2.283501 0
M  V30 73 H 3.470679 -1.076344 0.072872 0
M  V30 74 H 4.362082 -1.227709 -1.314358 0
M  V30 75 H 4.303541 1.252741 -4.300357 0
M  V30 76 H 1.937478 -0.316368 -3.843441 0
M  V30 77 H 2.235975 0.922984 -5.062554 0
M  V30 78 H 2.627408 -0.803643 -5.465430 0
M  V30 79 H 6.086113 -0.239985 -4.345816 0
M  V30 80 H 4.947218 -0.801089 -5.628584 0
M  V30 81 H 5.923390 -2.148997 -3.257760 0
M  V30 82 H 7.212470 -2.930501 -5.003655 0
M  V30 83 H 6.392703 -3.948895 -6.208440 0
M  V30 84 H 6.279357 -2.187648 -6.411139 0
M  V30 85 H 5.661119 -5.102985 -4.983610 0
M  V30 86 H 5.767316 -4.378736 -3.382200 0
M  V30 87 H 4.103714 -4.802451 -4.106505 0
M  V30 88 H 2.992310 -2.438628 -3.765568 0
M  V30 89 H 4.615662 -3.182927 -1.562382 0
M  V30 90 H 3.402979 2.069636 1.003298 0
M  V30 91 H 4.125351 0.636994 0.110945 0
M  V30 92 H 3.073763 1.785193 -0.690453 0
M  V30 93 H 1.163502 0.728880 3.277738 0
M  V30 94 H 2.398379 -0.360092 3.843710 0
M  V30 95 H 2.937714 1.205391 3.303309 0
M  V30 96 H 0.539774 0.710954 -0.624035 0
M  V30 97 H 0.099625 0.180248 1.114443 0
M  V30 98 H -0.901056 1.994083 0.927243 0
M  V30 99 H 0.246293 4.101729 1.823578 0
M  V30 100 H 1.628825 3.109541 2.157397 0
M  V30 101 H -0.033170 2.734627 2.859878 0
M  V30 102 H -1.004916 3.542306 -2.287194 0
M  V30 103 H -3.058848 4.471927 -0.743231 0
M  V30 104 H -1.545524 4.805322 0.299532 0
M  V30 105 H -1.718139 5.432801 -1.321799 0
M  V30 106 H -1.789752 1.202450 -0.803957 0
M  V30 107 H -3.037352 3.291067 1.322312 0
M  V30 108 H -4.726423 3.343995 0.735000 0
M  V30 109 H -4.895220 0.895317 1.264228 0
M  V30 110 H -3.217724 0.907185 1.858924 0
M  V30 111 H -3.599389 2.565696 3.473517 0
M  V30 112 H -5.307369 2.819454 3.012429 0
M  V30 113 H -5.204653 1.268649 4.967197 0
M  V30 114 H -5.707390 0.374267 3.501619 0
M  V30 115 H -4.034451 -1.447169 2.597605 0
M  V30 116 H -0.467261 -3.106202 4.730209 0
M  V30 117 H 1.441915 -3.763347 6.079984 0
M  V30 118 H 2.100265 -2.377728 8.025155 0
M  V30 119 H -1.052474 0.307175 7.261638 0
M  V30 120 H -2.825090 0.888714 5.982064 0
M  V30 121 H -2.062767 3.363805 -4.007727 0
M  V30 122 H -3.715554 2.539554 -4.288718 0
M  V30 123 H -3.421397 3.603143 -2.939178 0
M  V30 END ATOM
M  V30 BEGIN BOND
M  V30 1 1 1 2
M  V30 2 1 2 3
M  V30 3 1 3 4
M  V30 4 1 4 5
M  V30 5 2 5 6
M  V30 6 1 5 7
M  V30 7 1 7 8
M  V30 8 1 7 9
M  V30 9 2 9 10
M  V30 10 1 9 11
M  V30 11 1 11 12
M  V30 12 1 11 13
M  V30 13 1 13 14
M  V30 14 1 14 15
M  V30 15 1 15 16
M  V30 16 1 16 17
M  V30 17 1 17 18
M  V30 18 1 17 19
M  V30 19 1 19 20
M  V30 20 1 20 21
M  V30 21 1 21 22
M  V30 22 1 21 23
M  V30 23 1 20 24
M  V30 24 1 24 25
M  V30 25 1 13 26
M  V30 26 1 26 27
M  V30 27 1 26 28 CFG=1
M  V30 28 1 28 29
M  V30 29 1 26 30
M  V30 30 1 30 31
M  V30 31 1 31 32
M  V30 32 1 31 33
M  V30 33 2 33 34
M  V30 34 1 33 35
M  V30 35 1 35 36
M  V30 36 1 35 37
M  V30 37 1 37 38
M  V30 38 1 38 39
M  V30 39 1 39 40
M  V30 40 1 40 41
M  V30 41 1 41 42
M  V30 42 1 42 43
M  V30 43 1 43 44
M  V30 44 2 44 45
M  V30 45 1 45 46
M  V30 46 1 46 47
M  V30 47 2 47 48
M  V30 48 1 48 49
M  V30 49 2 49 50
M  V30 50 1 50 51
M  V30 51 2 51 52
M  V30 52 2 46 53
M  V30 53 1 38 54
M  V30 54 2 54 55
M  V30 55 1 54 56
M  V30 56 1 56 57
M  V30 57 1 57 58 CFG=3
M  V30 58 1 57 3
M  V30 59 1 24 15
M  V30 60 1 57 37
M  V30 61 1 53 43
M  V30 62 1 52 47
M  V30 63 1 1 59
M  V30 64 1 1 60
M  V30 65 1 1 61
M  V30 66 1 2 62
M  V30 67 1 2 63
M  V30 68 1 3 64 CFG=3
M  V30 69 1 7 65 CFG=3
M  V30 70 1 8 66
M  V30 71 1 8 67
M  V30 72 1 8 68
M  V30 73 1 11 69 CFG=3
M  V30 74 1 12 70
M  V30 75 1 12 71
M  V30 76 1 12 72
M  V30 77 1 13 73 CFG=1
M  V30 78 1 15 74 CFG=1
M  V30 79 1 17 75 CFG=1
M  V30 80 1 18 76
M  V30 81 1 18 77
M  V30 82 1 18 78
M  V30 83 1 19 79
M  V30 84 1 19 80
M  V30 85 1 20 81 CFG=1
M  V30 86 1 22 82
M  V30 87 1 22 83
M  V30 88 1 22 84
M  V30 89 1 23 85
M  V30 90 1 23 86
M  V30 91 1 23 87
M  V30 92 1 24 88 CFG=3
M  V30 93 1 25 89
M  V30 94 1 27 90
M  V30 95 1 27 91
M  V30 96 1 27 92
M  V30 97 1 29 93
M  V30 98 1 29 94
M  V30 99 1 29 95
M  V30 100 1 30 96
M  V30 101 1 30 97
M  V30 102 1 31 98 CFG=1
M  V30 103 1 32 99
M  V30 104 1 32 100
M  V30 105 1 32 101
M  V30 106 1 35 102 CFG=3
M  V30 107 1 36 103
M  V30 108 1 36 104
M  V30 109 1 36 105
M  V30 110 1 37 106 CFG=1
M  V30 111 1 39 107
M  V30 112 1 39 108
M  V30 113 1 40 109
M  V30 114 1 40 110
M  V30 115 1 41 111
M  V30 116 1 41 112
M  V30 117 1 42 113
M  V30 118 1 42 114
M  V30 119 1 44 115
M  V30 120 1 48 116
M  V30 121 1 49 117
M  V30 122 1 50 118
M  V30 123 1 52 119
M  V30 124 1 53 120
M  V30 125 1 58 121
M  V30 126 1 58 122
M  V30 127 1 58 123
M  V30 END BOND
M  V30 END CTAB
M  END
>  <Dataset>  (944) 
OralDrugs

>  <Ligand_Instance>  (944) 
nan

>  <PDB_ID>  (944) 
nan

>  <Standardized_SMILES>  (944) 
CC[C@H]1OC(=O)[C@H](C)C(=O)[C@H](C)[C@@H](O[C@@H]2O[C@H](C)C[C@H](N(C)C)[C@H]2O)[C@](C)(OC)C[C@@H](C)C(=O)[C@H](C)[C@H]2N(CCCCn3cnc(-c4cccnc4)c3)C(=O)O[C@]12C

>  <Name>  (944) 
Telithromycin

>  <Pocket>  (944) 
nan

>  <ATP_Site>  (944) 
nan

>  <Peripheral>  (944) 
nan

>  <Num_H_Atoms_ProtBoundConf>  (944) 
nan

>  <Num_Resolved_Atoms>  (944) 
nan

>  <Num_Not_Resolved_Atoms>  (944) 
nan

$$$$
CHEMBL1017
     RDKit          3D

  0  0  0  0  0  0  0  0  0  0999 V3000
M  V30 BEGIN CTAB
M  V30 COUNTS 69 74 0 0 0
M  V30 BEGIN ATOM
M  V30 1 C 3.661806 -3.380515 2.288245 0
M  V30 2 C 2.514795 -3.404960 3.279610 0
M  V30 3 C 1.344414 -4.180392 2.777730 0
M  V30 4 C 0.743368 -3.689566 1.535199 0
M  V30 5 N 1.243201 -4.168310 0.358097 0
M  V30 6 C 0.544764 -3.603116 -0.656696 0
M  V30 7 C 0.652933 -3.751517 -2.012834 0
M  V30 8 C 1.669053 -4.653781 -2.610806 0
M  V30 9 C -0.197340 -3.050209 -2.841757 0
M  V30 10 C -1.124007 -2.226596 -2.278936 0
M  V30 11 C -2.033846 -1.476212 -3.159965 0
M  V30 12 N -2.028667 -0.131415 -2.964900 0
M  V30 13 C -2.909405 0.437004 -3.839996 0
M  V30 14 C -3.318870 1.730503 -4.101812 0
M  V30 15 C -4.267067 1.960920 -5.097684 0
M  V30 16 C -4.777914 0.873718 -5.804917 0
M  V30 17 C -4.380874 -0.428871 -5.557849 0
M  V30 18 C -3.438633 -0.608328 -4.561245 0
M  V30 19 N -2.905455 -1.766548 -4.146177 0
M  V30 20 C -3.075624 -3.135783 -4.523646 0
M  V30 21 C -1.202934 -2.102789 -0.907433 0
M  V30 22 C -0.389549 -2.770061 -0.033668 0
M  V30 23 N -0.262493 -2.827238 1.324181 0
M  V30 24 C -1.069276 -2.110182 2.245641 0
M  V30 25 C -0.620666 -0.786098 2.652551 0
M  V30 26 C 0.073025 -0.511217 3.812889 0
M  V30 27 C 0.523613 0.717790 4.243724 0
M  V30 28 C 0.265098 1.810561 3.443672 0
M  V30 29 C 0.682251 3.172269 3.753349 0
M  V30 30 C -0.278764 4.159348 3.678746 0
M  V30 31 C 0.147513 5.432459 3.993619 0
M  V30 32 C 1.433949 5.769769 4.366671 0
M  V30 33 C 2.377692 4.794112 4.438601 0
M  V30 34 C 1.962196 3.522058 4.126253 0
M  V30 35 C 3.003406 2.512096 4.196594 0
M  V30 36 O 4.200886 2.720315 4.529337 0
M  V30 37 O 3.514109 1.244296 4.088723 0
M  V30 38 C -0.427797 1.640980 2.253235 0
M  V30 39 C -0.843466 0.373256 1.897155 0
M  V30 40 H 3.525243 -4.227052 1.578772 0
M  V30 41 H 3.720817 -2.411377 1.736291 0
M  V30 42 H 4.644705 -3.513776 2.782396 0
M  V30 43 H 2.238649 -2.386817 3.605495 0
M  V30 44 H 2.918152 -3.927101 4.181852 0
M  V30 45 H 0.545081 -4.126342 3.564265 0
M  V30 46 H 1.614111 -5.257278 2.741240 0
M  V30 47 H 2.251656 -4.082817 -3.389818 0
M  V30 48 H 2.425464 -4.964507 -1.862100 0
M  V30 49 H 1.182406 -5.532674 -3.103098 0
M  V30 50 H -0.115871 -3.163891 -3.914470 0
M  V30 51 H -2.850196 2.491732 -3.486298 0
M  V30 52 H -4.559234 2.983100 -5.270402 0
M  V30 53 H -5.515073 1.084470 -6.574760 0
M  V30 54 H -4.789851 -1.260753 -6.118583 0
M  V30 55 H -2.326040 -3.377382 -5.319529 0
M  V30 56 H -4.074820 -3.276398 -5.021787 0
M  V30 57 H -3.069227 -3.840546 -3.683122 0
M  V30 58 H -1.955732 -1.441670 -0.551851 0
M  V30 59 H -2.141328 -2.046724 1.954222 0
M  V30 60 H -1.094165 -2.728338 3.193458 0
M  V30 61 H 0.305904 -1.323746 4.490960 0
M  V30 62 H 1.054903 0.853068 5.168578 0
M  V30 63 H -1.297092 3.945383 3.392191 0
M  V30 64 H -0.612803 6.207045 3.933504 0
M  V30 65 H 1.675454 6.806964 4.597361 0
M  V30 66 H 3.389927 5.037679 4.728589 0
M  V30 67 H 3.530590 0.775926 3.192866 0
M  V30 68 H -0.639267 2.486754 1.614276 0
M  V30 69 H -1.378952 0.303542 0.960323 0
M  V30 END ATOM
M  V30 BEGIN BOND
M  V30 1 1 1 2
M  V30 2 1 2 3
M  V30 3 1 3 4
M  V30 4 2 4 5
M  V30 5 1 5 6
M  V30 6 2 6 7
M  V30 7 1 7 8
M  V30 8 1 7 9
M  V30 9 2 9 10
M  V30 10 1 10 11
M  V30 11 2 11 12
M  V30 12 1 12 13
M  V30 13 2 13 14
M  V30 14 1 14 15
M  V30 15 2 15 16
M  V30 16 1 16 17
M  V30 17 2 17 18
M  V30 18 1 18 19
M  V30 19 1 19 20
M  V30 20 1 10 21
M  V30 21 2 21 22
M  V30 22 1 22 23
M  V30 23 1 23 24
M  V30 24 1 24 25
M  V30 25 2 25 26
M  V30 26 1 26 27
M  V30 27 2 27 28
M  V30 28 1 28 29
M  V30 29 2 29 30
M  V30 30 1 30 31
M  V30 31 2 31 32
M  V30 32 1 32 33
M  V30 33 2 33 34
M  V30 34 1 34 35
M  V30 35 2 35 36
M  V30 36 1 35 37
M  V30 37 1 28 38
M  V30 38 2 38 39
M  V30 39 1 23 4
M  V30 40 1 39 25
M  V30 41 1 22 6
M  V30 42 1 34 29
M  V30 43 1 19 11
M  V30 44 1 18 13
M  V30 45 1 1 40
M  V30 46 1 1 41
M  V30 47 1 1 42
M  V30 48 1 2 43
M  V30 49 1 2 44
M  V30 50 1 3 45
M  V30 51 1 3 46
M  V30 52 1 8 47
M  V30 53 1 8 48
M  V30 54 1 8 49
M  V30 55 1 9 50
M  V30 56 1 14 51
M  V30 57 1 15 52
M  V30 58 1 16 53
M  V30 59 1 17 54
M  V30 60 1 20 55
M  V30 61 1 20 56
M  V30 62 1 20 57
M  V30 63 1 21 58
M  V30 64 1 24 59
M  V30 65 1 24 60
M  V30 66 1 26 61
M  V30 67 1 27 62
M  V30 68 1 30 63
M  V30 69 1 31 64
M  V30 70 1 32 65
M  V30 71 1 33 66
M  V30 72 1 37 67
M  V30 73 1 38 68
M  V30 74 1 39 69
M  V30 END BOND
M  V30 END CTAB
M  END
>  <Dataset>  (945) 
OralDrugs

>  <Ligand_Instance>  (945) 
nan

>  <PDB_ID>  (945) 
nan

>  <Standardized_SMILES>  (945) 
CCCc1nc2c(C)cc(-c3nc4ccccc4n3C)cc2n1Cc1ccc(-c2ccccc2C(=O)O)cc1

>  <Name>  (945) 
Telmisartan

>  <Pocket>  (945) 
nan

>  <ATP_Site>  (945) 
nan

>  <Peripheral>  (945) 
nan

>  <Num_H_Atoms_ProtBoundConf>  (945) 
nan

>  <Num_Resolved_Atoms>  (945) 
nan

>  <Num_Not_Resolved_Atoms>  (945) 
nan

$$$$
CHEMBL967
     RDKit          3D

  0  0  0  0  0  0  0  0  0  0999 V3000
M  V30 BEGIN CTAB
M  V30 COUNTS 34 36 0 0 0
M  V30 BEGIN ATOM
M  V30 1 C -0.646883 -1.556257 4.239987 0
M  V30 2 N -0.153711 -1.716764 2.896756 0
M  V30 3 C 1.129944 -2.289462 2.547293 0
M  V30 4 O 1.791096 -2.469682 3.631558 0
M  V30 5 C 1.637879 -2.629980 1.157946 0
M  V30 6 O 0.833660 -3.665645 0.702960 0
M  V30 7 N 1.602817 -1.450611 0.311223 0
M  V30 8 C 0.606051 -0.626661 0.071743 0
M  V30 9 C 0.868422 0.476693 -0.818573 0
M  V30 10 C 2.118256 0.401290 -1.453260 0
M  V30 11 C 2.627596 1.365960 -2.292204 0
M  V30 12 C 1.899246 2.503321 -2.559662 0
M  V30 13 C 0.665576 2.628391 -1.961078 0
M  V30 14 C 0.216928 1.629376 -1.133808 0
M  V30 15 C -0.755899 -0.817287 0.618281 0
M  V30 16 C -1.689162 -0.441701 -0.358349 0
M  V30 17 C -2.997760 -0.529855 0.055774 0
M  V30 18 Cl -4.195966 -0.066655 -1.127365 0
M  V30 19 C -3.351603 -0.955394 1.325783 0
M  V30 20 C -2.424642 -1.324417 2.272362 0
M  V30 21 C -1.096950 -1.252183 1.901350 0
M  V30 22 H 0.244287 -1.531054 4.902002 0
M  V30 23 H -1.239303 -2.418631 4.615278 0
M  V30 24 H -1.131944 -0.570410 4.401893 0
M  V30 25 H 2.676919 -2.942429 1.235060 0
M  V30 26 H 1.147673 -3.895608 -0.210318 0
M  V30 27 H 2.809339 -0.435167 -1.341221 0
M  V30 28 H 3.587635 1.308514 -2.780088 0
M  V30 29 H 2.193266 3.321705 -3.197494 0
M  V30 30 H 0.026855 3.484273 -2.112873 0
M  V30 31 H -0.713834 1.760629 -0.634443 0
M  V30 32 H -1.344755 -0.159095 -1.341676 0
M  V30 33 H -4.380544 -1.015827 1.628895 0
M  V30 34 H -2.562096 -1.662861 3.264510 0
M  V30 END ATOM
M  V30 BEGIN BOND
M  V30 1 1 1 2
M  V30 2 1 2 3
M  V30 3 2 3 4
M  V30 4 1 3 5
M  V30 5 1 5 6
M  V30 6 1 5 7
M  V30 7 2 7 8
M  V30 8 1 8 9
M  V30 9 2 9 10
M  V30 10 1 10 11
M  V30 11 2 11 12
M  V30 12 1 12 13
M  V30 13 2 13 14
M  V30 14 1 8 15
M  V30 15 2 15 16
M  V30 16 1 16 17
M  V30 17 1 17 18
M  V30 18 2 17 19
M  V30 19 1 19 20
M  V30 20 2 20 21
M  V30 21 1 21 2
M  V30 22 1 14 9
M  V30 23 1 21 15
M  V30 24 1 1 22
M  V30 25 1 1 23
M  V30 26 1 1 24
M  V30 27 1 5 25
M  V30 28 1 6 26
M  V30 29 1 10 27
M  V30 30 1 11 28
M  V30 31 1 12 29
M  V30 32 1 13 30
M  V30 33 1 14 31
M  V30 34 1 16 32
M  V30 35 1 19 33
M  V30 36 1 20 34
M  V30 END BOND
M  V30 END CTAB
M  END
>  <Dataset>  (946) 
OralDrugs

>  <Ligand_Instance>  (946) 
nan

>  <PDB_ID>  (946) 
nan

>  <Standardized_SMILES>  (946) 
CN1C(=O)C(O)N=C(c2ccccc2)c2cc(Cl)ccc21

>  <Name>  (946) 
Temazepam

>  <Pocket>  (946) 
nan

>  <ATP_Site>  (946) 
nan

>  <Peripheral>  (946) 
nan

>  <Num_H_Atoms_ProtBoundConf>  (946) 
nan

>  <Num_Resolved_Atoms>  (946) 
nan

>  <Num_Not_Resolved_Atoms>  (946) 
nan

$$$$
CHEMBL3304485
     RDKit          3D

  0  0  0  0  0  0  0  0  0  0999 V3000
M  V30 BEGIN CTAB
M  V30 COUNTS 140 145 0 0 0
M  V30 BEGIN ATOM
M  V30 1 C 4.150665 -4.061507 2.547598 0
M  V30 2 N 4.130854 -2.661298 2.250468 0
M  V30 3 C 5.133016 -2.209928 1.356902 0
M  V30 4 C 4.902063 -0.763866 1.069367 0
M  V30 5 C 5.979399 0.114938 1.031006 0
M  V30 6 Cl 7.604169 -0.500698 1.344336 0
M  V30 7 C 5.752818 1.441229 0.757171 0
M  V30 8 C 4.462636 1.880235 0.524741 0
M  V30 9 Cl 4.158062 3.553960 0.177444 0
M  V30 10 C 3.362470 1.038010 0.553845 0
M  V30 11 C 3.622249 -0.294668 0.832733 0
M  V30 12 C 2.585040 -1.325622 0.907212 0 CFG=2
M  V30 13 C 1.202633 -0.862465 0.771332 0
M  V30 14 C 0.476902 -0.439007 1.863154 0
M  V30 15 C -0.831247 -0.024246 1.767639 0
M  V30 16 C -1.501176 -0.009441 0.547584 0
M  V30 17 C -0.841631 -0.412337 -0.568286 0
M  V30 18 S -1.402026 -0.474474 -2.238588 0
M  V30 19 O -2.582378 -1.427746 -2.330107 0
M  V30 20 O -0.320532 -0.897279 -3.179541 0
M  V30 21 N -1.955150 1.080172 -2.708632 0
M  V30 22 C -3.333842 1.013810 -3.172580 0
M  V30 23 C -3.755072 2.463173 -3.530178 0
M  V30 24 O -2.854299 2.973495 -4.421409 0
M  V30 25 C -3.063704 4.302326 -4.752782 0
M  V30 26 C -1.686205 4.718031 -5.335752 0
M  V30 27 O -0.759728 4.516605 -4.424132 0
M  V30 28 C -0.508081 5.095381 -3.259487 0
M  V30 29 C -1.598842 5.269152 -2.272851 0
M  V30 30 N -1.200923 5.861307 -0.979032 0
M  V30 31 C -2.443059 6.067274 -0.244901 0
M  V30 32 O -3.474920 5.708578 -0.930426 0
M  V30 33 N -2.798163 6.588273 1.059052 0
M  V30 34 C -4.257431 6.671578 1.153572 0
M  V30 35 C -4.783169 7.290513 2.335943 0
M  V30 36 C -4.828024 6.830967 3.717278 0
M  V30 37 C -5.691339 5.695156 4.060231 0
M  V30 38 N -5.543943 4.349534 3.765347 0
M  V30 39 C -4.586943 3.459051 4.346801 0
M  V30 40 O -3.790073 3.991135 5.176461 0
M  V30 41 N -4.552758 2.052522 4.026600 0
M  V30 42 C -3.617504 1.306202 4.856028 0
M  V30 43 C -3.689871 -0.189202 4.473575 0
M  V30 44 O -2.875721 -0.939359 5.264488 0
M  V30 45 C -2.745432 -2.291463 4.986660 0
M  V30 46 C -1.956864 -2.505632 3.732245 0
M  V30 47 O -1.736193 -3.769656 3.306660 0
M  V30 48 C -1.179616 -4.672130 4.194207 0
M  V30 49 C -0.824496 -5.969655 3.421536 0
M  V30 50 N 0.173453 -5.613853 2.403254 0
M  V30 51 S 0.677610 -6.910507 1.446956 0
M  V30 52 O -0.033492 -8.172693 1.856361 0
M  V30 53 O 2.150460 -7.184631 1.538108 0
M  V30 54 C 0.309511 -6.659241 -0.268720 0
M  V30 55 C -0.854880 -6.965113 -0.985421 0
M  V30 56 C -0.892195 -6.658596 -2.325845 0
M  V30 57 C 0.137390 -6.067613 -3.030340 0
M  V30 58 C 1.332011 -5.732588 -2.381115 0
M  V30 59 C 2.480715 -5.104230 -2.998825 0 CFG=2
M  V30 60 C 2.190159 -3.974871 -3.960108 0
M  V30 61 N 3.311902 -3.130122 -4.101334 0
M  V30 62 C 3.040351 -1.901603 -4.789434 0
M  V30 63 C 4.576604 -3.734178 -4.388391 0
M  V30 64 C 4.408272 -5.208130 -4.297604 0
M  V30 65 C 5.425775 -5.884153 -4.991408 0
M  V30 66 Cl 6.742099 -5.117555 -5.878521 0
M  V30 67 C 5.476708 -7.270127 -5.039116 0
M  V30 68 C 4.505501 -8.032485 -4.389949 0
M  V30 69 Cl 4.416192 -9.768977 -4.341361 0
M  V30 70 C 3.506765 -7.354132 -3.709337 0
M  V30 71 C 3.454686 -5.980757 -3.661476 0
M  V30 72 C 1.327072 -6.058730 -1.030120 0
M  V30 73 C 0.482722 -0.821781 -0.403019 0
M  V30 74 C 2.811929 -2.186365 2.106070 0
M  V30 75 H 3.847846 -4.661719 1.680564 0
M  V30 76 H 3.432389 -4.297970 3.387372 0
M  V30 77 H 5.130029 -4.439299 2.908491 0
M  V30 78 H 5.144603 -2.829522 0.434492 0
M  V30 79 H 6.121428 -2.355417 1.844230 0
M  V30 80 H 6.582825 2.124703 0.728539 0
M  V30 81 H 2.343252 1.350186 0.376704 0
M  V30 82 H 2.767602 -2.008490 0.017251 0
M  V30 83 H 0.879597 -0.401751 2.861768 0
M  V30 84 H -1.378438 0.306004 2.627848 0
M  V30 85 H -2.520397 0.293353 0.369300 0
M  V30 86 H -1.899529 1.794867 -1.973760 0
M  V30 87 H -3.452385 0.421321 -4.077447 0
M  V30 88 H -3.965583 0.718722 -2.319450 0
M  V30 89 H -3.993335 3.056829 -2.667538 0
M  V30 90 H -4.717875 2.313649 -4.102038 0
M  V30 91 H -3.388135 4.966575 -3.991675 0
M  V30 92 H -3.778939 4.327021 -5.646981 0
M  V30 93 H -1.579342 4.049636 -6.247021 0
M  V30 94 H -1.775138 5.741792 -5.757555 0
M  V30 95 H -0.025427 6.118270 -3.504219 0
M  V30 96 H 0.395009 4.568246 -2.772973 0
M  V30 97 H -2.129154 4.348117 -2.120995 0
M  V30 98 H -2.245275 6.110109 -2.702179 0
M  V30 99 H -0.442535 6.205876 -0.336963 0
M  V30 100 H -1.841900 6.733566 1.502265 0
M  V30 101 H -4.585999 7.257977 0.236369 0
M  V30 102 H -4.599681 5.614184 0.968359 0
M  V30 103 H -5.857767 7.710193 2.117668 0
M  V30 104 H -4.259000 8.345930 2.414244 0
M  V30 105 H -3.776683 6.710033 4.163612 0
M  V30 106 H -5.206677 7.710338 4.343469 0
M  V30 107 H -5.880268 5.711163 5.224101 0
M  V30 108 H -6.760016 6.004404 3.735411 0
M  V30 109 H -6.164931 3.858339 3.050339 0
M  V30 110 H -5.168168 1.688044 3.259374 0
M  V30 111 H -3.731329 1.455800 5.923274 0
M  V30 112 H -2.571917 1.597573 4.530188 0
M  V30 113 H -4.767957 -0.465619 4.692235 0
M  V30 114 H -3.501807 -0.327790 3.422968 0
M  V30 115 H -2.170839 -2.723391 5.864581 0
M  V30 116 H -3.695454 -2.848526 5.001410 0
M  V30 117 H -0.968922 -1.962253 3.864945 0
M  V30 118 H -2.515089 -1.945625 2.929253 0
M  V30 119 H -0.287744 -4.233756 4.652211 0
M  V30 120 H -1.916491 -4.887695 4.972958 0
M  V30 121 H -0.352674 -6.636208 4.161298 0
M  V30 122 H -1.707523 -6.449458 3.014422 0
M  V30 123 H -0.287982 -4.891550 1.800428 0
M  V30 124 H -1.588339 -7.421518 -0.350759 0
M  V30 125 H -1.842052 -6.936321 -2.805557 0
M  V30 126 H 0.046661 -5.856312 -4.064947 0
M  V30 127 H 3.055198 -4.603231 -2.160372 0
M  V30 128 H 1.990139 -4.450077 -4.961963 0
M  V30 129 H 1.249512 -3.447739 -3.719188 0
M  V30 130 H 3.881724 -1.186805 -4.686012 0
M  V30 131 H 2.163161 -1.432581 -4.306026 0
M  V30 132 H 2.899432 -2.104374 -5.855007 0
M  V30 133 H 5.372596 -3.387880 -3.670933 0
M  V30 134 H 4.903106 -3.418125 -5.406241 0
M  V30 135 H 6.231106 -7.844438 -5.557974 0
M  V30 136 H 2.690018 -7.847141 -3.164399 0
M  V30 137 H 2.257386 -5.798528 -0.507478 0
M  V30 138 H 1.100270 -1.172044 -1.250158 0
M  V30 139 H 2.485310 -1.599823 3.013705 0
M  V30 140 H 2.119850 -3.069800 2.123271 0
M  V30 END ATOM
M  V30 BEGIN BOND
M  V30 1 1 1 2
M  V30 2 1 2 3
M  V30 3 1 3 4
M  V30 4 2 4 5
M  V30 5 1 5 6
M  V30 6 1 5 7
M  V30 7 2 7 8
M  V30 8 1 8 9
M  V30 9 1 8 10
M  V30 10 2 10 11
M  V30 11 1 11 12
M  V30 12 1 12 13
M  V30 13 2 13 14
M  V30 14 1 14 15
M  V30 15 2 15 16
M  V30 16 1 16 17
M  V30 17 1 17 18
M  V30 18 2 18 19
M  V30 19 2 18 20
M  V30 20 1 18 21
M  V30 21 1 21 22
M  V30 22 1 22 23
M  V30 23 1 23 24
M  V30 24 1 24 25
M  V30 25 1 25 26
M  V30 26 1 26 27
M  V30 27 1 27 28
M  V30 28 1 28 29
M  V30 29 1 29 30
M  V30 30 1 30 31
M  V30 31 2 31 32
M  V30 32 1 31 33
M  V30 33 1 33 34
M  V30 34 1 34 35
M  V30 35 1 35 36
M  V30 36 1 36 37
M  V30 37 1 37 38
M  V30 38 1 38 39
M  V30 39 2 39 40
M  V30 40 1 39 41
M  V30 41 1 41 42
M  V30 42 1 42 43
M  V30 43 1 43 44
M  V30 44 1 44 45
M  V30 45 1 45 46
M  V30 46 1 46 47
M  V30 47 1 47 48
M  V30 48 1 48 49
M  V30 49 1 49 50
M  V30 50 1 50 51
M  V30 51 2 51 52
M  V30 52 2 51 53
M  V30 53 1 51 54
M  V30 54 2 54 55
M  V30 55 1 55 56
M  V30 56 2 56 57
M  V30 57 1 57 58
M  V30 58 1 58 59
M  V30 59 1 59 60
M  V30 60 1 60 61
M  V30 61 1 61 62
M  V30 62 1 61 63
M  V30 63 1 63 64
M  V30 64 2 64 65
M  V30 65 1 65 66
M  V30 66 1 65 67
M  V30 67 2 67 68
M  V30 68 1 68 69
M  V30 69 1 68 70
M  V30 70 2 70 71
M  V30 71 2 58 72
M  V30 72 2 17 73
M  V30 73 1 12 74
M  V30 74 1 74 2
M  V30 75 1 11 4
M  V30 76 1 73 13
M  V30 77 1 72 54
M  V30 78 1 71 59
M  V30 79 1 71 64
M  V30 80 1 1 75
M  V30 81 1 1 76
M  V30 82 1 1 77
M  V30 83 1 3 78
M  V30 84 1 3 79
M  V30 85 1 7 80
M  V30 86 1 10 81
M  V30 87 1 12 82 CFG=3
M  V30 88 1 14 83
M  V30 89 1 15 84
M  V30 90 1 16 85
M  V30 91 1 21 86
M  V30 92 1 22 87
M  V30 93 1 22 88
M  V30 94 1 23 89
M  V30 95 1 23 90
M  V30 96 1 25 91
M  V30 97 1 25 92
M  V30 98 1 26 93
M  V30 99 1 26 94
M  V30 100 1 28 95
M  V30 101 1 28 96
M  V30 102 1 29 97
M  V30 103 1 29 98
M  V30 104 1 30 99
M  V30 105 1 33 100
M  V30 106 1 34 101
M  V30 107 1 34 102
M  V30 108 1 35 103
M  V30 109 1 35 104
M  V30 110 1 36 105
M  V30 111 1 36 106
M  V30 112 1 37 107
M  V30 113 1 37 108
M  V30 114 1 38 109
M  V30 115 1 41 110
M  V30 116 1 42 111
M  V30 117 1 42 112
M  V30 118 1 43 113
M  V30 119 1 43 114
M  V30 120 1 45 115
M  V30 121 1 45 116
M  V30 122 1 46 117
M  V30 123 1 46 118
M  V30 124 1 48 119
M  V30 125 1 48 120
M  V30 126 1 49 121
M  V30 127 1 49 122
M  V30 128 1 50 123
M  V30 129 1 55 124
M  V30 130 1 56 125
M  V30 131 1 57 126
M  V30 132 1 59 127 CFG=1
M  V30 133 1 60 128
M  V30 134 1 60 129
M  V30 135 1 62 130
M  V30 136 1 62 131
M  V30 137 1 62 132
M  V30 138 1 63 133
M  V30 139 1 63 134
M  V30 140 1 67 135
M  V30 141 1 70 136
M  V30 142 1 72 137
M  V30 143 1 73 138
M  V30 144 1 74 139
M  V30 145 1 74 140
M  V30 END BOND
M  V30 END CTAB
M  END
>  <Dataset>  (947) 
OralDrugs

>  <Ligand_Instance>  (947) 
nan

>  <PDB_ID>  (947) 
nan

>  <Standardized_SMILES>  (947) 
CN1Cc2c(Cl)cc(Cl)cc2[C@H](c2cccc(S(=O)(=O)NCCOCCOCCNC(=O)NCCCCNC(=O)NCCOCCOCCNS(=O)(=O)c3cccc([C@@H]4CN(C)Cc5c(Cl)cc(Cl)cc54)c3)c2)C1

>  <Name>  (947) 
Tenapanor

>  <Pocket>  (947) 
nan

>  <ATP_Site>  (947) 
nan

>  <Peripheral>  (947) 
nan

>  <Num_H_Atoms_ProtBoundConf>  (947) 
nan

>  <Num_Resolved_Atoms>  (947) 
nan

>  <Num_Not_Resolved_Atoms>  (947) 
nan

$$$$
CHEMBL2147777
     RDKit          3D

  0  0  0  0  0  0  0  0  0  0999 V3000
M  V30 BEGIN CTAB
M  V30 COUNTS 60 64 0 0 0
M  V30 BEGIN ATOM
M  V30 1 C -2.645635 -6.187461 2.747912 0
M  V30 2 C -1.539703 -5.217211 2.465208 0
M  V30 3 C -1.440011 -3.930019 2.958641 0
M  V30 4 C -0.278517 -3.350862 2.471858 0
M  V30 5 N 0.185631 -2.055143 2.737822 0
M  V30 6 C 1.372088 -1.442152 2.249142 0
M  V30 7 C 1.341065 0.066977 2.524004 0
M  V30 8 N 0.088809 0.668216 2.110912 0
M  V30 9 C -0.101692 0.506367 0.695494 0 CFG=2
M  V30 10 C 0.998160 1.154367 -0.114577 0
M  V30 11 N 0.374278 1.675541 -1.319333 0
M  V30 12 C -0.950791 1.134315 -1.334109 0 CFG=2
M  V30 13 C -1.928296 1.771760 -2.179017 0
M  V30 14 O -3.049829 1.163042 -2.073846 0
M  V30 15 N -1.744178 2.919762 -3.036486 0
M  V30 16 C -0.665020 3.849284 -3.411915 0
M  V30 17 C -1.054933 5.179968 -2.749370 0
M  V30 18 S -2.830792 5.170508 -3.212856 0
M  V30 19 C -2.858974 3.445170 -3.839935 0
M  V30 20 C -1.301259 1.205102 0.154291 0
M  V30 21 C -0.953118 0.113251 2.907954 0
M  V30 22 C -0.577415 -1.172167 3.605253 0
M  V30 23 N 0.280178 -4.285679 1.712875 0
M  V30 24 C 1.471416 -4.235359 0.978777 0
M  V30 25 C 1.588970 -3.964333 -0.388194 0
M  V30 26 C 2.855059 -3.950603 -0.977963 0
M  V30 27 C 4.010767 -4.197644 -0.253814 0
M  V30 28 C 3.907491 -4.467871 1.103376 0
M  V30 29 C 2.640553 -4.473256 1.652952 0
M  V30 30 N -0.468614 -5.397784 1.707243 0
M  V30 31 H -2.729780 -6.846834 1.857456 0
M  V30 32 H -2.412670 -6.788977 3.645789 0
M  V30 33 H -3.614848 -5.653170 2.869962 0
M  V30 34 H -2.189418 -3.511301 3.615427 0
M  V30 35 H 2.227049 -1.866248 2.851018 0
M  V30 36 H 1.586322 -1.531126 1.187503 0
M  V30 37 H 1.468478 0.179926 3.621435 0
M  V30 38 H 2.212133 0.559528 2.022908 0
M  V30 39 H -0.133834 -0.550198 0.430033 0
M  V30 40 H 1.511963 1.952733 0.459827 0
M  V30 41 H 1.748030 0.398742 -0.435557 0
M  V30 42 H 0.909660 1.387306 -2.175539 0
M  V30 43 H -0.912856 0.030037 -1.569081 0
M  V30 44 H 0.323077 3.517684 -3.090420 0
M  V30 45 H -0.746882 4.012329 -4.498918 0
M  V30 46 H -0.515679 5.996682 -3.230324 0
M  V30 47 H -0.911339 5.060322 -1.672569 0
M  V30 48 H -2.604948 3.488189 -4.921197 0
M  V30 49 H -3.815570 2.951300 -3.620723 0
M  V30 50 H -1.349119 2.258086 0.471593 0
M  V30 51 H -2.251109 0.681264 0.255351 0
M  V30 52 H -1.942995 0.036476 2.406165 0
M  V30 53 H -1.140392 0.862830 3.732813 0
M  V30 54 H -1.532216 -1.610308 3.951795 0
M  V30 55 H 0.028691 -1.008997 4.522855 0
M  V30 56 H 0.672300 -3.777994 -0.917127 0
M  V30 57 H 2.910246 -3.735751 -2.045354 0
M  V30 58 H 4.988530 -4.185227 -0.718668 0
M  V30 59 H 4.803161 -4.655835 1.648169 0
M  V30 60 H 2.644998 -4.692517 2.717950 0
M  V30 END ATOM
M  V30 BEGIN BOND
M  V30 1 1 1 2
M  V30 2 1 2 3
M  V30 3 2 3 4
M  V30 4 1 4 5
M  V30 5 1 5 6
M  V30 6 1 6 7
M  V30 7 1 7 8
M  V30 8 1 8 9
M  V30 9 1 9 10
M  V30 10 1 10 11
M  V30 11 1 11 12
M  V30 12 1 12 13
M  V30 13 2 13 14
M  V30 14 1 13 15
M  V30 15 1 15 16
M  V30 16 1 16 17
M  V30 17 1 17 18
M  V30 18 1 18 19
M  V30 19 1 12 20
M  V30 20 1 8 21
M  V30 21 1 21 22
M  V30 22 1 4 23
M  V30 23 1 23 24
M  V30 24 2 24 25
M  V30 25 1 25 26
M  V30 26 2 26 27
M  V30 27 1 27 28
M  V30 28 2 28 29
M  V30 29 1 23 30
M  V30 30 2 30 2
M  V30 31 1 22 5
M  V30 32 1 29 24
M  V30 33 1 20 9
M  V30 34 1 19 15
M  V30 35 1 1 31
M  V30 36 1 1 32
M  V30 37 1 1 33
M  V30 38 1 3 34
M  V30 39 1 6 35
M  V30 40 1 6 36
M  V30 41 1 7 37
M  V30 42 1 7 38
M  V30 43 1 9 39 CFG=1
M  V30 44 1 10 40
M  V30 45 1 10 41
M  V30 46 1 11 42
M  V30 47 1 12 43 CFG=3
M  V30 48 1 16 44
M  V30 49 1 16 45
M  V30 50 1 17 46
M  V30 51 1 17 47
M  V30 52 1 19 48
M  V30 53 1 19 49
M  V30 54 1 20 50
M  V30 55 1 20 51
M  V30 56 1 21 52
M  V30 57 1 21 53
M  V30 58 1 22 54
M  V30 59 1 22 55
M  V30 60 1 25 56
M  V30 61 1 26 57
M  V30 62 1 27 58
M  V30 63 1 28 59
M  V30 64 1 29 60
M  V30 END BOND
M  V30 END CTAB
M  END
>  <Dataset>  (948) 
OralDrugs

>  <Ligand_Instance>  (948) 
nan

>  <PDB_ID>  (948) 
nan

>  <Standardized_SMILES>  (948) 
Cc1cc(N2CCN([C@@H]3CN[C@H](C(=O)N4CCSC4)C3)CC2)n(-c2ccccc2)n1

>  <Name>  (948) 
Teneligliptin

>  <Pocket>  (948) 
nan

>  <ATP_Site>  (948) 
nan

>  <Peripheral>  (948) 
nan

>  <Num_H_Atoms_ProtBoundConf>  (948) 
nan

>  <Num_Resolved_Atoms>  (948) 
nan

>  <Num_Not_Resolved_Atoms>  (948) 
nan

$$$$
CHEMBL3402762
     RDKit          3D

  0  0  0  0  0  0  0  0  0  0999 V3000
M  V30 BEGIN CTAB
M  V30 COUNTS 65 69 0 0 0
M  V30 BEGIN ATOM
M  V30 1 C 2.427970 -2.174433 5.627561 0
M  V30 2 N 2.739298 -1.806609 4.264555 0
M  V30 3 C 3.879269 -0.962969 4.241917 0
M  V30 4 C 4.637016 -0.856447 2.972036 0
M  V30 5 C 4.429518 -1.995448 1.993592 0
M  V30 6 C 4.980027 -1.599021 0.668878 0
M  V30 7 O 4.471941 -0.510115 0.028352 0
M  V30 8 C 3.289122 -0.169398 -0.523190 0
M  V30 9 C 2.041411 -0.686307 -0.764194 0
M  V30 10 N 1.086085 0.035285 -1.375074 0
M  V30 11 C 1.300764 1.302106 -1.782481 0
M  V30 12 C 0.185038 1.969216 -2.436210 0
M  V30 13 C 0.351106 3.287467 -2.798847 0
M  V30 14 C -0.725993 3.932550 -3.415517 0
M  V30 15 C -1.884504 3.187338 -3.614414 0
M  V30 16 C -2.081432 1.885391 -3.268968 0
M  V30 17 C -3.322226 1.136047 -3.498997 0
M  V30 18 N -4.196191 1.023236 -2.363569 0
M  V30 19 N -3.988097 -0.072715 -1.612592 0
M  V30 20 C -4.721504 -0.351625 -0.521139 0
M  V30 21 C -4.387936 -1.591047 0.212273 0
M  V30 22 C -3.344751 -2.359688 -0.285266 0
M  V30 23 C -2.938185 -3.557168 0.305735 0
M  V30 24 C -3.598991 -4.009966 1.446743 0
M  V30 25 C -4.628041 -3.238483 1.924990 0
M  V30 26 C -5.331264 -3.699274 3.109020 0
M  V30 27 N -5.885294 -4.067823 4.058733 0
M  V30 28 C -5.026890 -2.045544 1.327982 0
M  V30 29 C -5.734266 0.485747 -0.117766 0
M  V30 30 C -5.973699 1.631477 -0.878118 0
M  V30 31 C -5.192960 1.866963 -1.984802 0
M  V30 32 O -5.331312 2.882651 -2.744938 0
M  V30 33 C -0.981265 1.270297 -2.652659 0
M  V30 34 N 2.511356 1.876885 -1.577466 0
M  V30 35 C 3.503979 1.158085 -0.955363 0
M  V30 36 C 3.037908 -2.497841 2.025370 0
M  V30 37 C 2.813042 -3.002156 3.472794 0
M  V30 38 H 1.346461 -2.503297 5.596083 0
M  V30 39 H 3.031049 -3.001945 6.026990 0
M  V30 40 H 2.408978 -1.285917 6.301655 0
M  V30 41 H 4.529768 -1.202895 5.134918 0
M  V30 42 H 3.512305 0.081171 4.477113 0
M  V30 43 H 5.733849 -0.907258 3.272587 0
M  V30 44 H 4.564710 0.111706 2.437059 0
M  V30 45 H 5.076499 -2.849112 2.382925 0
M  V30 46 H 6.107018 -1.578010 0.747201 0
M  V30 47 H 4.804934 -2.493572 -0.020822 0
M  V30 48 H 1.982066 -1.699045 -0.419812 0
M  V30 49 H 1.273691 3.817879 -2.620058 0
M  V30 50 H -0.685403 4.977672 -3.738237 0
M  V30 51 H -2.700384 3.712672 -4.094740 0
M  V30 52 H -3.844538 1.636700 -4.368699 0
M  V30 53 H -3.037938 0.123798 -3.861944 0
M  V30 54 H -2.763456 -2.107106 -1.160205 0
M  V30 55 H -2.140229 -4.170963 -0.053072 0
M  V30 56 H -3.296070 -4.931177 1.906930 0
M  V30 57 H -5.839750 -1.454246 1.723235 0
M  V30 58 H -6.329072 0.274169 0.758833 0
M  V30 59 H -6.756302 2.337447 -0.616300 0
M  V30 60 H -1.128949 0.218556 -2.367986 0
M  V30 61 H 4.360202 1.850779 -0.919935 0
M  V30 62 H 2.905949 -3.349952 1.357241 0
M  V30 63 H 2.264909 -1.693587 1.930696 0
M  V30 64 H 1.870549 -3.548866 3.563150 0
M  V30 65 H 3.658041 -3.650069 3.721019 0
M  V30 END ATOM
M  V30 BEGIN BOND
M  V30 1 1 1 2
M  V30 2 1 2 3
M  V30 3 1 3 4
M  V30 4 1 4 5
M  V30 5 1 5 6
M  V30 6 1 6 7
M  V30 7 1 7 8
M  V30 8 2 8 9
M  V30 9 1 9 10
M  V30 10 2 10 11
M  V30 11 1 11 12
M  V30 12 2 12 13
M  V30 13 1 13 14
M  V30 14 2 14 15
M  V30 15 1 15 16
M  V30 16 1 16 17
M  V30 17 1 17 18
M  V30 18 1 18 19
M  V30 19 2 19 20
M  V30 20 1 20 21
M  V30 21 2 21 22
M  V30 22 1 22 23
M  V30 23 2 23 24
M  V30 24 1 24 25
M  V30 25 1 25 26
M  V30 26 3 26 27
M  V30 27 2 25 28
M  V30 28 1 20 29
M  V30 29 2 29 30
M  V30 30 1 30 31
M  V30 31 2 31 32
M  V30 32 2 16 33
M  V30 33 1 11 34
M  V30 34 2 34 35
M  V30 35 1 5 36
M  V30 36 1 36 37
M  V30 37 1 37 2
M  V30 38 1 35 8
M  V30 39 1 33 12
M  V30 40 1 31 18
M  V30 41 1 28 21
M  V30 42 1 1 38
M  V30 43 1 1 39
M  V30 44 1 1 40
M  V30 45 1 3 41
M  V30 46 1 3 42
M  V30 47 1 4 43
M  V30 48 1 4 44
M  V30 49 1 5 45
M  V30 50 1 6 46
M  V30 51 1 6 47
M  V30 52 1 9 48
M  V30 53 1 13 49
M  V30 54 1 14 50
M  V30 55 1 15 51
M  V30 56 1 17 52
M  V30 57 1 17 53
M  V30 58 1 22 54
M  V30 59 1 23 55
M  V30 60 1 24 56
M  V30 61 1 28 57
M  V30 62 1 29 58
M  V30 63 1 30 59
M  V30 64 1 33 60
M  V30 65 1 35 61
M  V30 66 1 36 62
M  V30 67 1 36 63
M  V30 68 1 37 64
M  V30 69 1 37 65
M  V30 END BOND
M  V30 END CTAB
M  END
>  <Dataset>  (949) 
OralDrugs

>  <Ligand_Instance>  (949) 
nan

>  <PDB_ID>  (949) 
nan

>  <Standardized_SMILES>  (949) 
CN1CCC(COc2cnc(-c3cccc(Cn4nc(-c5cccc(C#N)c5)ccc4=O)c3)nc2)CC1

>  <Name>  (949) 
Tepotinib

>  <Pocket>  (949) 
nan

>  <ATP_Site>  (949) 
nan

>  <Peripheral>  (949) 
nan

>  <Num_H_Atoms_ProtBoundConf>  (949) 
nan

>  <Num_Resolved_Atoms>  (949) 
nan

>  <Num_Not_Resolved_Atoms>  (949) 
nan

$$$$
CHEMBL611
     RDKit          3D

  0  0  0  0  0  0  0  0  0  0999 V3000
M  V30 BEGIN CTAB
M  V30 COUNTS 53 56 0 0 0
M  V30 BEGIN ATOM
M  V30 1 C -4.034407 -3.419138 3.953047 0
M  V30 2 O -3.287021 -4.394428 3.233707 0
M  V30 3 C -2.553800 -3.916466 2.152505 0
M  V30 4 C -2.566820 -2.574397 1.818172 0
M  V30 5 C -1.812408 -2.181703 0.731667 0
M  V30 6 N -1.813797 -0.879595 0.392759 0
M  V30 7 C -1.114681 -0.393305 -0.645930 0
M  V30 8 N -1.078953 0.970780 -1.048196 0
M  V30 9 C -0.317137 1.475418 -2.175882 0
M  V30 10 C 0.850519 2.234784 -1.574855 0
M  V30 11 N 0.404602 2.874562 -0.360620 0
M  V30 12 C 1.164368 3.113225 0.793124 0
M  V30 13 O 0.714841 3.686527 1.839367 0
M  V30 14 C 2.551801 2.810262 1.112723 0
M  V30 15 C 2.580394 1.758818 2.230850 0
M  V30 16 C 4.042319 1.360959 2.158366 0
M  V30 17 C 4.474295 1.878475 0.800676 0
M  V30 18 O 3.278378 2.176648 0.130584 0
M  V30 19 C -0.980304 3.315834 -0.334335 0
M  V30 20 C -1.812291 2.044802 -0.367809 0
M  V30 21 N -0.369128 -1.230423 -1.398859 0
M  V30 22 C -0.333415 -2.552570 -1.099505 0
M  V30 23 N 0.431193 -3.489642 -1.851156 0
M  V30 24 C -1.046607 -3.065977 -0.035333 0
M  V30 25 C -1.046922 -4.403475 0.315180 0
M  V30 26 C -1.804144 -4.807728 1.408351 0
M  V30 27 O -1.790599 -6.153518 1.743025 0
M  V30 28 C -1.016377 -7.040174 0.966144 0
M  V30 29 H -4.534115 -3.845037 4.842840 0
M  V30 30 H -3.362029 -2.591634 4.260931 0
M  V30 31 H -4.841315 -3.011596 3.302283 0
M  V30 32 H -3.131938 -1.858466 2.367640 0
M  V30 33 H -0.930206 2.207700 -2.755827 0
M  V30 34 H 0.033170 0.652031 -2.835784 0
M  V30 35 H 1.303869 2.951338 -2.284923 0
M  V30 36 H 1.592922 1.427832 -1.317301 0
M  V30 37 H 3.165830 3.697817 1.422294 0
M  V30 38 H 2.297731 2.199834 3.201250 0
M  V30 39 H 1.920210 0.929357 1.908517 0
M  V30 40 H 4.617463 1.880673 2.966035 0
M  V30 41 H 4.178725 0.251913 2.221974 0
M  V30 42 H 5.090249 1.136044 0.257810 0
M  V30 43 H 4.994562 2.861077 0.949252 0
M  V30 44 H -1.232474 3.918152 -1.236514 0
M  V30 45 H -1.246890 3.867221 0.565336 0
M  V30 46 H -1.920518 1.720004 0.694072 0
M  V30 47 H -2.813838 2.178111 -0.777128 0
M  V30 48 H 0.127048 -4.175792 -2.586958 0
M  V30 49 H 1.453697 -3.723092 -1.860027 0
M  V30 50 H -0.451229 -5.037203 -0.295492 0
M  V30 51 H -0.998754 -8.050754 1.398362 0
M  V30 52 H 0.030338 -6.685800 0.822955 0
M  V30 53 H -1.470337 -7.112266 -0.051761 0
M  V30 END ATOM
M  V30 BEGIN BOND
M  V30 1 1 1 2
M  V30 2 1 2 3
M  V30 3 2 3 4
M  V30 4 1 4 5
M  V30 5 2 5 6
M  V30 6 1 6 7
M  V30 7 1 7 8
M  V30 8 1 8 9
M  V30 9 1 9 10
M  V30 10 1 10 11
M  V30 11 1 11 12
M  V30 12 2 12 13
M  V30 13 1 12 14
M  V30 14 1 14 15
M  V30 15 1 15 16
M  V30 16 1 16 17
M  V30 17 1 17 18
M  V30 18 1 11 19
M  V30 19 1 19 20
M  V30 20 2 7 21
M  V30 21 1 21 22
M  V30 22 1 22 23
M  V30 23 2 22 24
M  V30 24 1 24 25
M  V30 25 2 25 26
M  V30 26 1 26 27
M  V30 27 1 27 28
M  V30 28 1 26 3
M  V30 29 1 24 5
M  V30 30 1 20 8
M  V30 31 1 18 14
M  V30 32 1 1 29
M  V30 33 1 1 30
M  V30 34 1 1 31
M  V30 35 1 4 32
M  V30 36 1 9 33
M  V30 37 1 9 34
M  V30 38 1 10 35
M  V30 39 1 10 36
M  V30 40 1 14 37
M  V30 41 1 15 38
M  V30 42 1 15 39
M  V30 43 1 16 40
M  V30 44 1 16 41
M  V30 45 1 17 42
M  V30 46 1 17 43
M  V30 47 1 19 44
M  V30 48 1 19 45
M  V30 49 1 20 46
M  V30 50 1 20 47
M  V30 51 1 23 48
M  V30 52 1 23 49
M  V30 53 1 25 50
M  V30 54 1 28 51
M  V30 55 1 28 52
M  V30 56 1 28 53
M  V30 END BOND
M  V30 END CTAB
M  END
>  <Dataset>  (950) 
OralDrugs

>  <Ligand_Instance>  (950) 
nan

>  <PDB_ID>  (950) 
nan

>  <Standardized_SMILES>  (950) 
COc1cc2nc(N3CCN(C(=O)C4CCCO4)CC3)nc(N)c2cc1OC

>  <Name>  (950) 
Terazosin

>  <Pocket>  (950) 
nan

>  <ATP_Site>  (950) 
nan

>  <Peripheral>  (950) 
nan

>  <Num_H_Atoms_ProtBoundConf>  (950) 
nan

>  <Num_Resolved_Atoms>  (950) 
nan

>  <Num_Not_Resolved_Atoms>  (950) 
nan

$$$$
CHEMBL822
     RDKit          3D

  0  0  0  0  0  0  0  0  0  0999 V3000
M  V30 BEGIN CTAB
M  V30 COUNTS 47 48 0 0 0
M  V30 BEGIN ATOM
M  V30 1 C -1.395630 -3.099277 4.698825 0
M  V30 2 N -1.004763 -2.273045 3.535181 0
M  V30 3 C 0.349806 -2.585706 3.233247 0
M  V30 4 C 0.899783 -2.003919 2.010582 0
M  V30 5 C 1.891956 -1.207029 1.665945 0
M  V30 6 C 2.085464 -0.872715 0.294952 0
M  V30 7 C 2.247884 -0.608196 -0.863395 0
M  V30 8 C 2.420410 -0.283110 -2.277923 0
M  V30 9 C 1.202148 -0.682555 -3.091124 0
M  V30 10 C 2.613131 1.194160 -2.401595 0
M  V30 11 C 3.587557 -1.040410 -2.853226 0
M  V30 12 C -1.323637 -0.942737 3.900844 0
M  V30 13 C -0.978683 0.140876 2.998375 0
M  V30 14 C 0.051865 1.052191 3.280171 0
M  V30 15 C 0.297974 2.059817 2.396890 0
M  V30 16 C -0.443610 2.192297 1.244471 0
M  V30 17 C -1.462034 1.305453 0.948822 0
M  V30 18 C -2.197676 1.443007 -0.207505 0
M  V30 19 C -3.219741 0.543634 -0.499263 0
M  V30 20 C -3.495913 -0.487448 0.373537 0
M  V30 21 C -2.745703 -0.609619 1.531796 0
M  V30 22 C -1.726452 0.270650 1.841553 0
M  V30 23 H -1.573351 -2.483822 5.602446 0
M  V30 24 H -2.348237 -3.627902 4.492578 0
M  V30 25 H -0.590538 -3.820842 4.951496 0
M  V30 26 H 0.417427 -3.707867 3.176167 0
M  V30 27 H 1.041582 -2.351255 4.105094 0
M  V30 28 H 0.245162 -2.384318 1.205093 0
M  V30 29 H 2.431674 -0.922229 2.547095 0
M  V30 30 H 0.378463 -0.800535 -2.346981 0
M  V30 31 H 0.932467 0.074314 -3.829137 0
M  V30 32 H 1.357028 -1.689257 -3.515410 0
M  V30 33 H 2.814111 1.379871 -3.498632 0
M  V30 34 H 1.691188 1.742798 -2.152852 0
M  V30 35 H 3.446806 1.592155 -1.822505 0
M  V30 36 H 4.531751 -0.875795 -2.307764 0
M  V30 37 H 3.312544 -2.110598 -2.848641 0
M  V30 38 H 3.737527 -0.638423 -3.883562 0
M  V30 39 H -0.803243 -0.728011 4.881263 0
M  V30 40 H -2.432993 -0.918743 4.113593 0
M  V30 41 H 0.603371 0.887854 4.217377 0
M  V30 42 H 1.094103 2.751512 2.629701 0
M  V30 43 H -0.246987 2.994543 0.541452 0
M  V30 44 H -2.015139 2.230932 -0.912895 0
M  V30 45 H -3.844912 0.589395 -1.396900 0
M  V30 46 H -4.269679 -1.201858 0.193791 0
M  V30 47 H -2.974173 -1.432507 2.218569 0
M  V30 END ATOM
M  V30 BEGIN BOND
M  V30 1 1 1 2
M  V30 2 1 2 3
M  V30 3 1 3 4
M  V30 4 2 4 5
M  V30 5 1 5 6
M  V30 6 3 6 7
M  V30 7 1 7 8
M  V30 8 1 8 9
M  V30 9 1 8 10
M  V30 10 1 8 11
M  V30 11 1 2 12
M  V30 12 1 12 13
M  V30 13 2 13 14
M  V30 14 1 14 15
M  V30 15 2 15 16
M  V30 16 1 16 17
M  V30 17 2 17 18
M  V30 18 1 18 19
M  V30 19 2 19 20
M  V30 20 1 20 21
M  V30 21 2 21 22
M  V30 22 1 22 13
M  V30 23 1 22 17
M  V30 24 1 1 23
M  V30 25 1 1 24
M  V30 26 1 1 25
M  V30 27 1 3 26
M  V30 28 1 3 27
M  V30 29 1 4 28
M  V30 30 1 5 29
M  V30 31 1 9 30
M  V30 32 1 9 31
M  V30 33 1 9 32
M  V30 34 1 10 33
M  V30 35 1 10 34
M  V30 36 1 10 35
M  V30 37 1 11 36
M  V30 38 1 11 37
M  V30 39 1 11 38
M  V30 40 1 12 39
M  V30 41 1 12 40
M  V30 42 1 14 41
M  V30 43 1 15 42
M  V30 44 1 16 43
M  V30 45 1 18 44
M  V30 46 1 19 45
M  V30 47 1 20 46
M  V30 48 1 21 47
M  V30 END BOND
M  V30 END CTAB
M  END
>  <Dataset>  (951) 
OralDrugs

>  <Ligand_Instance>  (951) 
nan

>  <PDB_ID>  (951) 
nan

>  <Standardized_SMILES>  (951) 
CN(C/C=C/C#CC(C)(C)C)Cc1cccc2ccccc12

>  <Name>  (951) 
Terbinafine

>  <Pocket>  (951) 
nan

>  <ATP_Site>  (951) 
nan

>  <Peripheral>  (951) 
nan

>  <Num_H_Atoms_ProtBoundConf>  (951) 
nan

>  <Num_Resolved_Atoms>  (951) 
nan

>  <Num_Not_Resolved_Atoms>  (951) 
nan

$$$$
CHEMBL1315867
     RDKit          3D

  0  0  0  0  0  0  0  0  0  0999 V3000
M  V30 BEGIN CTAB
M  V30 COUNTS 35 35 0 0 0
M  V30 BEGIN ATOM
M  V30 1 C -1.531377 -2.032407 0.730110 0
M  V30 2 C -0.581867 -2.282897 1.875336 0
M  V30 3 C -1.420449 -2.085869 3.160070 0
M  V30 4 C -0.254472 -3.751516 1.858325 0
M  V30 5 N 0.463810 -1.396520 1.949359 0
M  V30 6 C 1.542844 -1.248647 1.111244 0
M  V30 7 C 1.408800 -0.741765 -0.275614 0
M  V30 8 O 0.635307 -1.482931 -1.138771 0
M  V30 9 C 1.031239 0.703302 -0.355283 0
M  V30 10 C 0.877355 1.127988 -1.684460 0
M  V30 11 C 0.530653 2.428313 -1.985816 0
M  V30 12 O 0.375132 2.858794 -3.302842 0
M  V30 13 C 0.323583 3.356237 -0.988665 0
M  V30 14 C 0.478974 2.922969 0.309298 0
M  V30 15 O 0.284905 3.805739 1.342212 0
M  V30 16 C 0.824171 1.630124 0.626302 0
M  V30 17 H -1.504147 -0.984300 0.422160 0
M  V30 18 H -1.454869 -2.776242 -0.090907 0
M  V30 19 H -2.598594 -2.197177 1.104354 0
M  V30 20 H -2.489051 -2.210784 2.958280 0
M  V30 21 H -1.274305 -1.062813 3.570159 0
M  V30 22 H -1.030555 -2.780269 3.928309 0
M  V30 23 H 0.047355 -4.024679 0.821912 0
M  V30 24 H -1.169423 -4.342127 2.075834 0
M  V30 25 H 0.511542 -4.067732 2.559305 0
M  V30 26 H 0.506221 -0.796835 2.828301 0
M  V30 27 H 2.235870 -2.141034 1.042618 0
M  V30 28 H 2.246374 -0.496260 1.614827 0
M  V30 29 H 2.448097 -0.761282 -0.739436 0
M  V30 30 H 1.171734 -2.235091 -1.482369 0
M  V30 31 H 1.013243 0.492292 -2.550704 0
M  V30 32 H -0.478598 2.566339 -3.800516 0
M  V30 33 H 0.051058 4.378275 -1.212939 0
M  V30 34 H -0.291071 3.541985 2.134176 0
M  V30 35 H 0.964672 1.215363 1.615125 0
M  V30 END ATOM
M  V30 BEGIN BOND
M  V30 1 1 1 2
M  V30 2 1 2 3
M  V30 3 1 2 4
M  V30 4 1 2 5
M  V30 5 1 5 6
M  V30 6 1 6 7
M  V30 7 1 7 8
M  V30 8 1 7 9
M  V30 9 2 9 10
M  V30 10 1 10 11
M  V30 11 1 11 12
M  V30 12 2 11 13
M  V30 13 1 13 14
M  V30 14 1 14 15
M  V30 15 2 14 16
M  V30 16 1 16 9
M  V30 17 1 1 17
M  V30 18 1 1 18
M  V30 19 1 1 19
M  V30 20 1 3 20
M  V30 21 1 3 21
M  V30 22 1 3 22
M  V30 23 1 4 23
M  V30 24 1 4 24
M  V30 25 1 4 25
M  V30 26 1 5 26
M  V30 27 1 6 27
M  V30 28 1 6 28
M  V30 29 1 7 29
M  V30 30 1 8 30
M  V30 31 1 10 31
M  V30 32 1 12 32
M  V30 33 1 13 33
M  V30 34 1 15 34
M  V30 35 1 16 35
M  V30 END BOND
M  V30 END CTAB
M  END
>  <Dataset>  (952) 
OralDrugs

>  <Ligand_Instance>  (952) 
nan

>  <PDB_ID>  (952) 
nan

>  <Standardized_SMILES>  (952) 
CC(C)(C)NCC(O)c1cc(O)cc(O)c1

>  <Name>  (952) 
Terbutaline Sulfate

>  <Pocket>  (952) 
nan

>  <ATP_Site>  (952) 
nan

>  <Peripheral>  (952) 
nan

>  <Num_H_Atoms_ProtBoundConf>  (952) 
nan

>  <Num_Resolved_Atoms>  (952) 
nan

>  <Num_Not_Resolved_Atoms>  (952) 
nan

$$$$
CHEMBL973
     RDKit          3D

  0  0  0  0  0  0  0  0  0  0999 V3000
M  V30 BEGIN CTAB
M  V30 COUNTS 28 28 0 0 0
M  V30 BEGIN ATOM
M  V30 1 C 0.750474 -4.580709 4.028268 0
M  V30 2 C 0.320267 -3.418207 3.212310 0
M  V30 3 O -0.945522 -2.909990 3.229859 0
M  V30 4 C 1.139711 -2.778726 2.396701 0
M  V30 5 C 2.495134 -3.322849 2.377842 0
M  V30 6 N 3.593760 -3.747405 2.348860 0
M  V30 7 C 0.938184 -1.636915 1.518510 0
M  V30 8 O 1.871169 -1.148135 0.788614 0
M  V30 9 N -0.214809 -0.877865 1.288594 0
M  V30 10 C -0.154909 0.210304 0.364156 0
M  V30 11 C -0.446394 -0.071253 -0.957520 0
M  V30 12 C -0.419555 0.901873 -1.935381 0
M  V30 13 C -0.090939 2.202375 -1.586548 0
M  V30 14 C -0.047664 3.297594 -2.613186 0
M  V30 15 F -0.497375 4.488861 -2.075656 0
M  V30 16 F 1.239470 3.520185 -3.057226 0
M  V30 17 F -0.914461 2.987733 -3.654766 0
M  V30 18 C 0.202564 2.503358 -0.276011 0
M  V30 19 C 0.176998 1.523353 0.717032 0
M  V30 20 H 1.842373 -4.541817 4.230160 0
M  V30 21 H 0.181065 -4.550418 4.986487 0
M  V30 22 H 0.554601 -5.542832 3.513234 0
M  V30 23 H -1.787133 -3.431958 2.942056 0
M  V30 24 H -1.078812 -1.142976 1.808798 0
M  V30 25 H -0.711208 -1.071963 -1.293534 0
M  V30 26 H -0.652313 0.653380 -2.963307 0
M  V30 27 H 0.459570 3.516343 0.001590 0
M  V30 28 H 0.401358 1.715670 1.762673 0
M  V30 END ATOM
M  V30 BEGIN BOND
M  V30 1 1 1 2
M  V30 2 1 2 3
M  V30 3 2 2 4
M  V30 4 1 4 5
M  V30 5 3 5 6
M  V30 6 1 4 7
M  V30 7 2 7 8
M  V30 8 1 7 9
M  V30 9 1 9 10
M  V30 10 2 10 11
M  V30 11 1 11 12
M  V30 12 2 12 13
M  V30 13 1 13 14
M  V30 14 1 14 15
M  V30 15 1 14 16
M  V30 16 1 14 17
M  V30 17 1 13 18
M  V30 18 2 18 19
M  V30 19 1 19 10
M  V30 20 1 1 20
M  V30 21 1 1 21
M  V30 22 1 1 22
M  V30 23 1 3 23
M  V30 24 1 9 24
M  V30 25 1 11 25
M  V30 26 1 12 26
M  V30 27 1 18 27
M  V30 28 1 19 28
M  V30 END BOND
M  V30 END CTAB
M  END
>  <Dataset>  (953) 
OralDrugs

>  <Ligand_Instance>  (953) 
nan

>  <PDB_ID>  (953) 
nan

>  <Standardized_SMILES>  (953) 
C/C(O)=C(\C#N)C(=O)Nc1ccc(C(F)(F)F)cc1

>  <Name>  (953) 
Teriflunomide

>  <Pocket>  (953) 
nan

>  <ATP_Site>  (953) 
nan

>  <Peripheral>  (953) 
nan

>  <Num_H_Atoms_ProtBoundConf>  (953) 
nan

>  <Num_Resolved_Atoms>  (953) 
nan

>  <Num_Not_Resolved_Atoms>  (953) 
nan

$$$$
CHEMBL1571
     RDKit          3D

  0  0  0  0  0  0  0  0  0  0999 V3000
M  V30 BEGIN CTAB
M  V30 COUNTS 46 49 0 0 0
M  V30 BEGIN ATOM
M  V30 1 C 0.278265 -2.735969 -1.206979 0
M  V30 2 C 0.904002 -2.465977 0.142625 0 CFG=2
M  V30 3 C 2.256316 -2.993479 0.100171 0
M  V30 4 C 2.624103 -3.996858 0.902797 0
M  V30 5 C 1.709072 -4.605299 1.847361 0
M  V30 6 O 2.048371 -5.564632 2.618289 0
M  V30 7 C 0.328630 -4.145528 1.968817 0
M  V30 8 C 0.026257 -3.152103 1.149880 0
M  V30 9 C -1.339470 -2.569661 1.186895 0
M  V30 10 C -1.546419 -1.331276 0.407903 0
M  V30 11 C -0.428947 -0.376450 0.264239 0 CFG=2
M  V30 12 C 0.869002 -1.047579 0.558677 0 CFG=2
M  V30 13 C 1.963371 -0.160939 0.058303 0
M  V30 14 C 1.981101 1.038816 0.997273 0
M  V30 15 C 0.672411 1.729048 1.053077 0 CFG=2
M  V30 16 C 0.618714 2.726286 -0.087745 0
M  V30 17 O 0.627174 2.540468 2.239308 0
M  V30 18 C -0.641344 2.865573 2.700914 0
M  V30 19 O -0.875608 3.218770 3.887840 0
M  V30 20 C -1.824397 2.816419 1.807280 0
M  V30 21 C -1.701942 1.746589 0.732700 0
M  V30 22 C -0.544866 0.850952 1.142933 0 CFG=1
M  V30 23 H -0.615421 -3.392145 -1.156433 0
M  V30 24 H 0.978713 -3.302376 -1.890858 0
M  V30 25 H 0.008161 -1.844216 -1.778104 0
M  V30 26 H 2.946510 -2.547895 -0.601289 0
M  V30 27 H 3.644212 -4.390861 0.865662 0
M  V30 28 H -0.438060 -4.520377 2.633169 0
M  V30 29 H -2.102560 -3.310107 0.833521 0
M  V30 30 H -1.656330 -2.377754 2.257302 0
M  V30 31 H -2.377745 -0.757076 0.931595 0
M  V30 32 H -2.045326 -1.564000 -0.588927 0
M  V30 33 H -0.425970 0.062600 -0.782354 0
M  V30 34 H 0.971932 -1.032284 1.686795 0
M  V30 35 H 1.591765 0.254101 -0.923540 0
M  V30 36 H 2.951897 -0.605767 -0.020063 0
M  V30 37 H 2.743851 1.772577 0.705110 0
M  V30 38 H 2.197236 0.631656 2.022866 0
M  V30 39 H 0.031363 3.643033 0.164307 0
M  V30 40 H 0.389664 2.287449 -1.061812 0
M  V30 41 H 1.672643 3.120620 -0.191073 0
M  V30 42 H -2.743163 2.541315 2.377908 0
M  V30 43 H -2.010675 3.820424 1.411934 0
M  V30 44 H -2.639095 1.223253 0.552058 0
M  V30 45 H -1.465029 2.312467 -0.215799 0
M  V30 46 H -0.724075 0.541723 2.183368 0
M  V30 END ATOM
M  V30 BEGIN BOND
M  V30 1 1 2 1 CFG=3
M  V30 2 1 2 3
M  V30 3 2 3 4
M  V30 4 1 4 5
M  V30 5 2 5 6
M  V30 6 1 5 7
M  V30 7 2 7 8
M  V30 8 1 8 9
M  V30 9 1 9 10
M  V30 10 1 10 11
M  V30 11 1 11 12
M  V30 12 1 12 13
M  V30 13 1 13 14
M  V30 14 1 14 15
M  V30 15 1 15 16 CFG=3
M  V30 16 1 15 17
M  V30 17 1 17 18
M  V30 18 2 18 19
M  V30 19 1 18 20
M  V30 20 1 20 21
M  V30 21 1 21 22
M  V30 22 1 8 2
M  V30 23 1 22 11
M  V30 24 1 12 2
M  V30 25 1 22 15
M  V30 26 1 1 23
M  V30 27 1 1 24
M  V30 28 1 1 25
M  V30 29 1 3 26
M  V30 30 1 4 27
M  V30 31 1 7 28
M  V30 32 1 9 29
M  V30 33 1 9 30
M  V30 34 1 10 31
M  V30 35 1 10 32
M  V30 36 1 11 33 CFG=3
M  V30 37 1 12 34 CFG=1
M  V30 38 1 13 35
M  V30 39 1 13 36
M  V30 40 1 14 37
M  V30 41 1 14 38
M  V30 42 1 16 39
M  V30 43 1 16 40
M  V30 44 1 16 41
M  V30 45 1 20 42
M  V30 46 1 20 43
M  V30 47 1 21 44
M  V30 48 1 21 45
M  V30 49 1 22 46 CFG=1
M  V30 END BOND
M  V30 END CTAB
M  END
>  <Dataset>  (954) 
OralDrugs

>  <Ligand_Instance>  (954) 
nan

>  <PDB_ID>  (954) 
nan

>  <Standardized_SMILES>  (954) 
C[C@]12C=CC(=O)C=C1CC[C@@H]1[C@@H]2CC[C@]2(C)OC(=O)CC[C@@H]12

>  <Name>  (954) 
Testolactone

>  <Pocket>  (954) 
nan

>  <ATP_Site>  (954) 
nan

>  <Peripheral>  (954) 
nan

>  <Num_H_Atoms_ProtBoundConf>  (954) 
nan

>  <Num_Resolved_Atoms>  (954) 
nan

>  <Num_Not_Resolved_Atoms>  (954) 
nan

$$$$
CHEMBL117785
     RDKit          3D

  0  0  0  0  0  0  0  0  0  0999 V3000
M  V30 BEGIN CTAB
M  V30 COUNTS 50 52 0 0 0
M  V30 BEGIN ATOM
M  V30 1 C -0.065984 -5.730180 -1.219634 0
M  V30 2 O 0.416825 -4.976915 -0.138758 0
M  V30 3 C 0.787078 -3.646381 -0.229100 0
M  V30 4 C 0.727409 -2.901674 -1.385469 0
M  V30 5 C 1.111901 -1.600413 -1.381206 0
M  V30 6 C 1.580134 -0.957339 -0.226929 0
M  V30 7 C 1.640483 -1.701625 0.932252 0
M  V30 8 C 1.246246 -3.023584 0.913014 0
M  V30 9 O 1.328033 -3.725146 2.108582 0
M  V30 10 C 1.805024 -3.056571 3.268400 0
M  V30 11 C 1.939617 0.461435 -0.477391 0
M  V30 12 C 2.495752 1.176514 0.712797 0
M  V30 13 C 1.432984 1.759719 1.567332 0
M  V30 14 O 1.724635 2.117276 2.707571 0
M  V30 15 C 0.005056 1.946959 1.131684 0
M  V30 16 C -0.824468 1.597310 2.322589 0
M  V30 17 C -2.308053 1.712437 2.180903 0
M  V30 18 C -2.908232 1.336707 3.562161 0
M  V30 19 C -2.959338 0.738117 1.239561 0
M  V30 20 C -0.309179 1.260250 -0.120363 0
M  V30 21 N 0.801267 1.125826 -1.050800 0
M  V30 22 C 0.302033 0.488825 -2.218373 0
M  V30 23 C 1.056659 -0.753312 -2.628770 0
M  V30 24 H 0.689185 -5.995083 -1.969545 0
M  V30 25 H -0.533693 -6.647756 -0.817982 0
M  V30 26 H -0.825869 -5.107668 -1.769258 0
M  V30 27 H 0.363660 -3.387714 -2.299151 0
M  V30 28 H 2.007293 -1.145035 1.777220 0
M  V30 29 H 1.682297 -3.681930 4.169090 0
M  V30 30 H 2.800410 -2.622504 3.158122 0
M  V30 31 H 1.104397 -2.189787 3.429135 0
M  V30 32 H 2.723745 0.458526 -1.263889 0
M  V30 33 H 3.121952 0.473656 1.290720 0
M  V30 34 H 3.176093 1.997799 0.407759 0
M  V30 35 H -0.080584 3.071736 1.029967 0
M  V30 36 H -0.596229 0.547407 2.687864 0
M  V30 37 H -0.560319 2.266491 3.207176 0
M  V30 38 H -2.617581 2.735213 1.910830 0
M  V30 39 H -3.978017 1.060380 3.462698 0
M  V30 40 H -2.834599 2.202305 4.254629 0
M  V30 41 H -2.359425 0.470805 3.977521 0
M  V30 42 H -3.012395 1.031415 0.196756 0
M  V30 43 H -4.061358 0.732862 1.562532 0
M  V30 44 H -2.581618 -0.302298 1.414881 0
M  V30 45 H -1.042721 1.878447 -0.687235 0
M  V30 46 H -0.778916 0.276439 0.053642 0
M  V30 47 H 0.327018 1.177841 -3.086955 0
M  V30 48 H -0.770874 0.175382 -2.140532 0
M  V30 49 H 0.439285 -1.273139 -3.386900 0
M  V30 50 H 2.074503 -0.493462 -2.969878 0
M  V30 END ATOM
M  V30 BEGIN BOND
M  V30 1 1 1 2
M  V30 2 1 2 3
M  V30 3 2 3 4
M  V30 4 1 4 5
M  V30 5 2 5 6
M  V30 6 1 6 7
M  V30 7 2 7 8
M  V30 8 1 8 9
M  V30 9 1 9 10
M  V30 10 1 6 11
M  V30 11 1 11 12
M  V30 12 1 12 13
M  V30 13 2 13 14
M  V30 14 1 13 15
M  V30 15 1 15 16
M  V30 16 1 16 17
M  V30 17 1 17 18
M  V30 18 1 17 19
M  V30 19 1 15 20
M  V30 20 1 20 21
M  V30 21 1 21 22
M  V30 22 1 22 23
M  V30 23 1 8 3
M  V30 24 1 21 11
M  V30 25 1 23 5
M  V30 26 1 1 24
M  V30 27 1 1 25
M  V30 28 1 1 26
M  V30 29 1 4 27
M  V30 30 1 7 28
M  V30 31 1 10 29
M  V30 32 1 10 30
M  V30 33 1 10 31
M  V30 34 1 11 32
M  V30 35 1 12 33
M  V30 36 1 12 34
M  V30 37 1 15 35
M  V30 38 1 16 36
M  V30 39 1 16 37
M  V30 40 1 17 38
M  V30 41 1 18 39
M  V30 42 1 18 40
M  V30 43 1 18 41
M  V30 44 1 19 42
M  V30 45 1 19 43
M  V30 46 1 19 44
M  V30 47 1 20 45
M  V30 48 1 20 46
M  V30 49 1 22 47
M  V30 50 1 22 48
M  V30 51 1 23 49
M  V30 52 1 23 50
M  V30 END BOND
M  V30 END CTAB
M  END
>  <Dataset>  (955) 
OralDrugs

>  <Ligand_Instance>  (955) 
nan

>  <PDB_ID>  (955) 
nan

>  <Standardized_SMILES>  (955) 
COc1cc2c(cc1OC)C1CC(=O)C(CC(C)C)CN1CC2

>  <Name>  (955) 
Tetrabenazine

>  <Pocket>  (955) 
nan

>  <ATP_Site>  (955) 
nan

>  <Peripheral>  (955) 
nan

>  <Num_H_Atoms_ProtBoundConf>  (955) 
nan

>  <Num_Resolved_Atoms>  (955) 
nan

>  <Num_Not_Resolved_Atoms>  (955) 
nan

$$$$
CHEMBL1440
     RDKit          3D

  0  0  0  0  0  0  0  0  0  0999 V3000
M  V30 BEGIN CTAB
M  V30 COUNTS 56 59 0 0 0
M  V30 BEGIN ATOM
M  V30 1 C 2.998451 -0.086838 3.309706 0
M  V30 2 N 3.109789 -1.102958 2.299763 0
M  V30 3 C 2.526098 -2.331176 2.784431 0
M  V30 4 C 2.552117 -0.683060 1.026403 0 CFG=2
M  V30 5 C 3.278710 0.508025 0.583724 0
M  V30 6 O 4.650785 0.403776 0.711002 0
M  V30 7 C 2.743540 1.616626 0.096939 0
M  V30 8 C 3.526746 2.759025 -0.322614 0
M  V30 9 N 4.951112 2.634067 -0.183799 0
M  V30 10 O 2.969741 3.770184 -0.770828 0
M  V30 11 C 1.287723 1.618379 0.007665 0
M  V30 12 O 0.728700 2.334759 -0.892389 0
M  V30 13 C 0.505379 0.801127 0.949770 0 CFG=1
M  V30 14 O 0.557267 1.428257 2.202382 0
M  V30 15 C -0.924617 0.694426 0.552875 0
M  V30 16 O -1.403371 2.020176 0.557665 0
M  V30 17 C -1.715534 -0.323867 0.236070 0
M  V30 18 C -3.085991 0.044643 -0.095857 0
M  V30 19 O -3.600217 1.153359 0.078958 0
M  V30 20 C -3.837777 -1.059917 -0.680789 0
M  V30 21 C -5.149300 -0.955278 -1.071347 0
M  V30 22 O -5.700945 0.301779 -0.863056 0
M  V30 23 C -5.814717 -2.034709 -1.617420 0
M  V30 24 C -5.112430 -3.213627 -1.753145 0
M  V30 25 C -3.776080 -3.289588 -1.345872 0
M  V30 26 C -3.087161 -2.206511 -0.791173 0
M  V30 27 C -1.710033 -2.634662 -0.484544 0 CFG=1
M  V30 28 C -1.669738 -4.013696 0.139689 0
M  V30 29 O -1.049756 -2.733230 -1.730636 0
M  V30 30 C -0.999679 -1.610383 0.304037 0 CFG=1
M  V30 31 C 0.425655 -1.364277 -0.142109 0
M  V30 32 C 1.071616 -0.591867 1.013180 0 CFG=1
M  V30 33 H 3.797609 -0.282246 4.075663 0
M  V30 34 H 3.172846 0.925096 2.883602 0
M  V30 35 H 2.044006 -0.152207 3.889299 0
M  V30 36 H 2.065947 -2.938130 1.990106 0
M  V30 37 H 3.342537 -2.971508 3.225219 0
M  V30 38 H 1.813977 -2.167850 3.624512 0
M  V30 39 H 2.827899 -1.506461 0.303676 0
M  V30 40 H 5.104068 0.915586 1.456919 0
M  V30 41 H 5.395534 3.171263 0.594593 0
M  V30 42 H 5.223307 1.993713 -0.943312 0
M  V30 43 H -0.344194 1.715640 2.496429 0
M  V30 44 H -1.602124 2.404935 -0.364108 0
M  V30 45 H -6.103982 0.467903 0.072774 0
M  V30 46 H -6.841070 -1.840518 -1.888802 0
M  V30 47 H -5.691111 -4.012435 -2.184889 0
M  V30 48 H -3.414934 -4.311583 -1.543725 0
M  V30 49 H -1.623805 -4.747134 -0.687733 0
M  V30 50 H -0.694634 -4.094405 0.658371 0
M  V30 51 H -2.531585 -4.248154 0.761440 0
M  V30 52 H -1.697466 -3.001772 -2.430178 0
M  V30 53 H -0.936529 -1.935824 1.369398 0
M  V30 54 H 0.467089 -0.689042 -1.021262 0
M  V30 55 H 0.938865 -2.336556 -0.303747 0
M  V30 56 H 0.665169 -1.017139 1.979916 0
M  V30 END ATOM
M  V30 BEGIN BOND
M  V30 1 1 1 2
M  V30 2 1 2 3
M  V30 3 1 2 4
M  V30 4 1 4 5
M  V30 5 1 5 6
M  V30 6 2 5 7
M  V30 7 1 7 8
M  V30 8 1 8 9
M  V30 9 2 8 10
M  V30 10 1 7 11
M  V30 11 2 11 12
M  V30 12 1 11 13
M  V30 13 1 13 14 CFG=1
M  V30 14 1 13 15
M  V30 15 1 15 16
M  V30 16 2 15 17
M  V30 17 1 17 18
M  V30 18 2 18 19
M  V30 19 1 18 20
M  V30 20 2 20 21
M  V30 21 1 21 22
M  V30 22 1 21 23
M  V30 23 2 23 24
M  V30 24 1 24 25
M  V30 25 2 25 26
M  V30 26 1 26 27
M  V30 27 1 27 28
M  V30 28 1 27 29 CFG=3
M  V30 29 1 27 30
M  V30 30 1 30 31
M  V30 31 1 31 32
M  V30 32 1 32 4
M  V30 33 1 32 13
M  V30 34 1 30 17
M  V30 35 1 26 20
M  V30 36 1 1 33
M  V30 37 1 1 34
M  V30 38 1 1 35
M  V30 39 1 3 36
M  V30 40 1 3 37
M  V30 41 1 3 38
M  V30 42 1 4 39 CFG=3
M  V30 43 1 6 40
M  V30 44 1 9 41
M  V30 45 1 9 42
M  V30 46 1 14 43
M  V30 47 1 16 44
M  V30 48 1 22 45
M  V30 49 1 23 46
M  V30 50 1 24 47
M  V30 51 1 25 48
M  V30 52 1 28 49
M  V30 53 1 28 50
M  V30 54 1 28 51
M  V30 55 1 29 52
M  V30 56 1 30 53 CFG=1
M  V30 57 1 31 54
M  V30 58 1 31 55
M  V30 59 1 32 56 CFG=1
M  V30 END BOND
M  V30 END CTAB
M  END
>  <Dataset>  (956) 
OralDrugs

>  <Ligand_Instance>  (956) 
nan

>  <PDB_ID>  (956) 
nan

>  <Standardized_SMILES>  (956) 
CN(C)[C@@H]1C(O)=C(C(N)=O)C(=O)[C@@]2(O)C(O)=C3C(=O)c4c(O)cccc4[C@@](C)(O)[C@H]3C[C@@H]12

>  <Name>  (956) 
Tetracycline

>  <Pocket>  (956) 
nan

>  <ATP_Site>  (956) 
nan

>  <Peripheral>  (956) 
nan

>  <Num_H_Atoms_ProtBoundConf>  (956) 
nan

>  <Num_Resolved_Atoms>  (956) 
nan

>  <Num_Not_Resolved_Atoms>  (956) 
nan

$$$$
CHEMBL3544914
     RDKit          3D

  0  0  0  0  0  0  0  0  0  0999 V3000
M  V30 BEGIN CTAB
M  V30 COUNTS 64 68 0 0 0
M  V30 BEGIN ATOM
M  V30 1 C 2.119016 -1.262269 4.785138 0
M  V30 2 C 3.141384 -0.798807 3.744007 0
M  V30 3 C 4.057714 -2.075804 3.628302 0
M  V30 4 C 4.030614 0.178073 4.426660 0
M  V30 5 O 3.416279 1.279897 4.985467 0
M  V30 6 C 2.593784 -0.460320 2.449287 0
M  V30 7 C 2.340008 -1.578817 1.628521 0
M  V30 8 C 1.835672 -1.231215 0.398582 0
M  V30 9 C 1.424108 -1.871455 -0.746051 0
M  V30 10 C 0.964546 -1.096827 -1.790897 0
M  V30 11 N 0.532120 -1.779893 -2.963240 0
M  V30 12 C -0.844377 -1.992503 -2.743847 0
M  V30 13 O -1.715431 -1.746887 -1.838713 0
M  V30 14 C -2.042257 -2.602111 -3.409410 0
M  V30 15 C -3.358059 -2.130254 -2.906412 0
M  V30 16 C -3.588221 -0.775145 -2.711104 0
M  V30 17 C -4.772905 -0.250437 -2.240798 0
M  V30 18 C -5.805384 -1.106573 -1.939810 0
M  V30 19 C -5.607304 -2.478322 -2.125187 0
M  V30 20 C -4.410398 -2.962043 -2.596869 0
M  V30 21 O -6.787055 -3.151174 -1.756021 0
M  V30 22 C -7.416824 -2.270854 -0.810730 0
M  V30 23 F -6.690984 -2.394647 0.352118 0
M  V30 24 F -8.750522 -2.497327 -0.677152 0
M  V30 25 O -7.125371 -1.021842 -1.456663 0
M  V30 26 C -1.960953 -2.734954 -4.926842 0
M  V30 27 C -1.910711 -3.940133 -4.017768 0
M  V30 28 C 0.881488 0.278493 -1.787292 0
M  V30 29 F 0.421923 0.987253 -2.844885 0
M  V30 30 C 1.302487 0.882966 -0.626447 0
M  V30 31 C 1.765932 0.138359 0.433728 0
M  V30 32 N 2.216536 0.546869 1.645284 0
M  V30 33 C 2.317678 1.929181 2.054209 0
M  V30 34 C 1.023094 2.401337 2.634615 0 CFG=1
M  V30 35 O 0.682989 1.635698 3.732253 0
M  V30 36 C 1.039555 3.867039 2.987459 0
M  V30 37 O -0.274406 4.168710 3.420955 0
M  V30 38 H 1.524528 -2.117038 4.443166 0
M  V30 39 H 2.758795 -1.676767 5.619424 0
M  V30 40 H 1.558824 -0.450277 5.245311 0
M  V30 41 H 4.780218 -2.104485 4.440939 0
M  V30 42 H 4.597964 -2.015192 2.661719 0
M  V30 43 H 3.392662 -2.956063 3.580260 0
M  V30 44 H 4.603668 -0.299356 5.278226 0
M  V30 45 H 4.837328 0.459814 3.708946 0
M  V30 46 H 4.125544 1.890751 5.287060 0
M  V30 47 H 2.470106 -2.668023 1.789666 0
M  V30 48 H 1.475096 -2.932990 -0.782913 0
M  V30 49 H 0.678419 -2.201087 -3.879643 0
M  V30 50 H -2.829953 -0.010900 -2.921676 0
M  V30 51 H -4.947098 0.799034 -2.090875 0
M  V30 52 H -4.213384 -4.022679 -2.756409 0
M  V30 53 H -2.884371 -2.610640 -5.530259 0
M  V30 54 H -1.035827 -2.409847 -5.443526 0
M  V30 55 H -0.944219 -4.454946 -4.025989 0
M  V30 56 H -2.777680 -4.630318 -4.086201 0
M  V30 57 H 1.258144 1.961491 -0.569576 0
M  V30 58 H 2.417076 2.506471 1.066340 0
M  V30 59 H 3.222772 2.202582 2.589452 0
M  V30 60 H 0.189942 2.238870 1.891732 0
M  V30 61 H -0.210909 1.227470 3.690805 0
M  V30 62 H 1.289396 4.430772 2.072056 0
M  V30 63 H 1.725815 4.072265 3.833580 0
M  V30 64 H -0.898158 4.102447 2.631650 0
M  V30 END ATOM
M  V30 BEGIN BOND
M  V30 1 1 1 2
M  V30 2 1 2 3
M  V30 3 1 2 4
M  V30 4 1 4 5
M  V30 5 1 2 6
M  V30 6 2 6 7
M  V30 7 1 7 8
M  V30 8 2 8 9
M  V30 9 1 9 10
M  V30 10 1 10 11
M  V30 11 1 11 12
M  V30 12 2 12 13
M  V30 13 1 12 14
M  V30 14 1 14 15
M  V30 15 2 15 16
M  V30 16 1 16 17
M  V30 17 2 17 18
M  V30 18 1 18 19
M  V30 19 2 19 20
M  V30 20 1 19 21
M  V30 21 1 21 22
M  V30 22 1 22 23
M  V30 23 1 22 24
M  V30 24 1 22 25
M  V30 25 1 14 26
M  V30 26 1 26 27
M  V30 27 2 10 28
M  V30 28 1 28 29
M  V30 29 1 28 30
M  V30 30 2 30 31
M  V30 31 1 31 32
M  V30 32 1 32 33
M  V30 33 1 33 34
M  V30 34 1 34 35
M  V30 35 1 34 36
M  V30 36 1 36 37
M  V30 37 1 32 6
M  V30 38 1 31 8
M  V30 39 1 27 14
M  V30 40 1 20 15
M  V30 41 1 25 18
M  V30 42 1 1 38
M  V30 43 1 1 39
M  V30 44 1 1 40
M  V30 45 1 3 41
M  V30 46 1 3 42
M  V30 47 1 3 43
M  V30 48 1 4 44
M  V30 49 1 4 45
M  V30 50 1 5 46
M  V30 51 1 7 47
M  V30 52 1 9 48
M  V30 53 1 11 49
M  V30 54 1 16 50
M  V30 55 1 17 51
M  V30 56 1 20 52
M  V30 57 1 26 53
M  V30 58 1 26 54
M  V30 59 1 27 55
M  V30 60 1 27 56
M  V30 61 1 30 57
M  V30 62 1 33 58
M  V30 63 1 33 59
M  V30 64 1 34 60 CFG=3
M  V30 65 1 35 61
M  V30 66 1 36 62
M  V30 67 1 36 63
M  V30 68 1 37 64
M  V30 END BOND
M  V30 END CTAB
M  END
>  <Dataset>  (957) 
OralDrugs

>  <Ligand_Instance>  (957) 
nan

>  <PDB_ID>  (957) 
nan

>  <Standardized_SMILES>  (957) 
CC(C)(CO)c1cc2cc(NC(=O)C3(c4ccc5c(c4)OC(F)(F)O5)CC3)c(F)cc2n1C[C@@H](O)CO

>  <Name>  (957) 
Tezacaftor

>  <Pocket>  (957) 
nan

>  <ATP_Site>  (957) 
nan

>  <Peripheral>  (957) 
nan

>  <Num_H_Atoms_ProtBoundConf>  (957) 
nan

>  <Num_Resolved_Atoms>  (957) 
nan

>  <Num_Not_Resolved_Atoms>  (957) 
nan

$$$$
CHEMBL468
     RDKit          3D

  0  0  0  0  0  0  0  0  0  0999 V3000
M  V30 BEGIN CTAB
M  V30 COUNTS 29 31 0 0 0
M  V30 BEGIN ATOM
M  V30 1 O -1.727116 -3.826630 4.024195 0
M  V30 2 C -0.885530 -2.914541 3.723388 0
M  V30 3 C -1.188891 -1.504738 4.041221 0
M  V30 4 C -0.758816 -0.530111 3.004707 0
M  V30 5 C 0.653926 -0.707433 2.515803 0
M  V30 6 N 0.702797 -0.310205 1.114821 0
M  V30 7 C -0.023540 -0.960178 0.057441 0
M  V30 8 O -0.804510 -1.951898 0.140136 0
M  V30 9 C 0.287025 -0.269280 -1.210316 0
M  V30 10 C -0.122778 -0.461272 -2.534537 0
M  V30 11 C 0.361900 0.381304 -3.531650 0
M  V30 12 C 1.237022 1.397250 -3.227300 0
M  V30 13 C 1.658543 1.611576 -1.935362 0
M  V30 14 C 1.178217 0.773038 -0.932516 0
M  V30 15 C 1.451508 0.766229 0.512143 0
M  V30 16 O 2.212837 1.560892 1.148286 0
M  V30 17 C 1.146653 -2.081979 2.632453 0
M  V30 18 O 2.341068 -2.292284 2.308342 0
M  V30 19 N 0.361732 -3.170529 3.083933 0
M  V30 20 H -2.296667 -1.405647 4.132833 0
M  V30 21 H -0.813315 -1.225111 5.068274 0
M  V30 22 H -0.881551 0.485666 3.434613 0
M  V30 23 H -1.451758 -0.580248 2.138154 0
M  V30 24 H 1.325336 -0.001210 3.054242 0
M  V30 25 H -0.823515 -1.275776 -2.774054 0
M  V30 26 H 0.007393 0.182678 -4.541694 0
M  V30 27 H 1.586404 2.026088 -4.035485 0
M  V30 28 H 2.338752 2.410396 -1.736888 0
M  V30 29 H 0.649770 -4.178443 2.973511 0
M  V30 END ATOM
M  V30 BEGIN BOND
M  V30 1 2 1 2
M  V30 2 1 2 3
M  V30 3 1 3 4
M  V30 4 1 4 5
M  V30 5 1 5 6
M  V30 6 1 6 7
M  V30 7 2 7 8
M  V30 8 1 7 9
M  V30 9 2 9 10
M  V30 10 1 10 11
M  V30 11 2 11 12
M  V30 12 1 12 13
M  V30 13 2 13 14
M  V30 14 1 14 15
M  V30 15 2 15 16
M  V30 16 1 5 17
M  V30 17 2 17 18
M  V30 18 1 17 19
M  V30 19 1 19 2
M  V30 20 1 15 6
M  V30 21 1 14 9
M  V30 22 1 3 20
M  V30 23 1 3 21
M  V30 24 1 4 22
M  V30 25 1 4 23
M  V30 26 1 5 24
M  V30 27 1 10 25
M  V30 28 1 11 26
M  V30 29 1 12 27
M  V30 30 1 13 28
M  V30 31 1 19 29
M  V30 END BOND
M  V30 END CTAB
M  END
>  <Dataset>  (958) 
OralDrugs

>  <Ligand_Instance>  (958) 
nan

>  <PDB_ID>  (958) 
nan

>  <Standardized_SMILES>  (958) 
O=C1CCC(N2C(=O)c3ccccc3C2=O)C(=O)N1

>  <Name>  (958) 
Thalidomide

>  <Pocket>  (958) 
nan

>  <ATP_Site>  (958) 
nan

>  <Peripheral>  (958) 
nan

>  <Num_H_Atoms_ProtBoundConf>  (958) 
nan

>  <Num_Resolved_Atoms>  (958) 
nan

>  <Num_Not_Resolved_Atoms>  (958) 
nan

$$$$
CHEMBL625
     RDKit          3D

  0  0  0  0  0  0  0  0  0  0999 V3000
M  V30 BEGIN CTAB
M  V30 COUNTS 21 23 0 0 0
M  V30 BEGIN ATOM
M  V30 1 C 1.005937 1.969784 3.788215 0
M  V30 2 C 1.464710 0.725797 4.146773 0
M  V30 3 C 1.470131 -0.324038 3.250363 0
M  V30 4 C 0.989072 -0.051774 1.976328 0
M  V30 5 N 0.856311 -0.823355 0.887975 0
M  V30 6 C 0.338091 -0.157191 -0.160082 0
M  V30 7 C 0.067883 -0.702701 -1.483486 0
M  V30 8 C -0.490677 0.132801 -2.510912 0
M  V30 9 S -0.626526 -1.055793 -3.971944 0
M  V30 10 C 0.098522 -2.439835 -2.898897 0
M  V30 11 N 0.286109 -1.930087 -1.866086 0
M  V30 12 N 0.149502 1.081051 0.324982 0
M  V30 13 C 0.527218 1.193001 1.608777 0
M  V30 14 C 0.526914 2.235230 2.514638 0
M  V30 15 H 0.994246 2.812219 4.484506 0
M  V30 16 H 1.823822 0.599632 5.164900 0
M  V30 17 H 1.833026 -1.300475 3.540575 0
M  V30 18 H 1.133859 -1.831320 0.882685 0
M  V30 19 H -0.759716 1.331014 -2.313311 0
M  V30 20 H 0.200025 -3.387660 -3.404867 0
M  V30 21 H 0.159382 3.208865 2.207426 0
M  V30 END ATOM
M  V30 BEGIN BOND
M  V30 1 2 1 2
M  V30 2 1 2 3
M  V30 3 2 3 4
M  V30 4 1 4 5
M  V30 5 1 5 6
M  V30 6 1 6 7
M  V30 7 2 7 8
M  V30 8 1 8 9
M  V30 9 1 9 10
M  V30 10 2 10 11
M  V30 11 2 6 12
M  V30 12 1 12 13
M  V30 13 2 13 14
M  V30 14 1 14 1
M  V30 15 1 13 4
M  V30 16 1 11 7
M  V30 17 1 1 15
M  V30 18 1 2 16
M  V30 19 1 3 17
M  V30 20 1 5 18
M  V30 21 1 8 19
M  V30 22 1 10 20
M  V30 23 1 14 21
M  V30 END BOND
M  V30 END CTAB
M  END
>  <Dataset>  (959) 
OralDrugs

>  <Ligand_Instance>  (959) 
nan

>  <PDB_ID>  (959) 
nan

>  <Standardized_SMILES>  (959) 
c1ccc2[nH]c(-c3cscn3)nc2c1

>  <Name>  (959) 
Thiabendazole

>  <Pocket>  (959) 
nan

>  <ATP_Site>  (959) 
nan

>  <Peripheral>  (959) 
nan

>  <Num_H_Atoms_ProtBoundConf>  (959) 
nan

>  <Num_Resolved_Atoms>  (959) 
nan

>  <Num_Not_Resolved_Atoms>  (959) 
nan

$$$$
CHEMBL1378
     RDKit          3D

  0  0  0  0  0  0  0  0  0  0999 V3000
M  V30 BEGIN CTAB
M  V30 COUNTS 56 59 0 0 0
M  V30 BEGIN ATOM
M  V30 1 C -0.786855 -1.376564 4.386038 0
M  V30 2 C 0.556466 -1.332791 5.053339 0
M  V30 3 S 1.798518 -0.535642 3.987858 0
M  V30 4 C 2.080398 -1.544674 2.543734 0
M  V30 5 C 3.046159 -2.515361 2.673866 0
M  V30 6 C 3.308071 -3.324604 1.592485 0
M  V30 7 C 2.603362 -3.130353 0.444537 0
M  V30 8 C 1.628557 -2.193987 0.221089 0
M  V30 9 C 1.419212 -1.423366 1.341438 0
M  V30 10 N 0.875293 -1.981342 -0.954357 0
M  V30 11 C -0.087210 -0.921525 -1.064345 0
M  V30 12 C 0.539677 0.453966 -1.271832 0
M  V30 13 C -0.504207 1.529286 -1.448371 0
M  V30 14 N -1.322414 1.630586 -0.298197 0
M  V30 15 C -0.698677 2.169828 0.873583 0
M  V30 16 C -1.649149 2.257282 2.028027 0
M  V30 17 N -2.951065 1.736543 1.804287 0
M  V30 18 C -3.230797 0.472680 2.408032 0
M  V30 19 C -3.536777 1.969359 0.530189 0
M  V30 20 C -2.536795 2.398495 -0.515336 0
M  V30 21 C 1.087830 -2.796892 -2.096643 0
M  V30 22 C 0.378357 -2.620995 -3.263277 0
M  V30 23 C 0.497047 -3.344298 -4.431502 0
M  V30 24 C 1.428334 -4.371026 -4.464733 0
M  V30 25 C 2.181194 -4.612783 -3.336689 0
M  V30 26 C 1.977570 -3.831832 -2.236423 0
M  V30 27 S 3.035071 -4.257047 -0.867324 0
M  V30 28 H -1.060611 -0.336374 4.133637 0
M  V30 29 H -1.517536 -1.823601 5.079223 0
M  V30 30 H -0.745194 -2.042505 3.496482 0
M  V30 31 H 0.933080 -2.359506 5.274919 0
M  V30 32 H 0.479031 -0.731435 5.981408 0
M  V30 33 H 3.594594 -2.654146 3.590438 0
M  V30 34 H 4.071397 -4.081566 1.717743 0
M  V30 35 H 0.687869 -0.634453 1.388216 0
M  V30 36 H -0.863498 -1.042821 -1.806114 0
M  V30 37 H -0.618648 -0.923954 -0.048439 0
M  V30 38 H 1.168098 0.432384 -2.192726 0
M  V30 39 H 1.161555 0.780589 -0.418392 0
M  V30 40 H -0.013738 2.530557 -1.629578 0
M  V30 41 H -1.116253 1.347385 -2.362426 0
M  V30 42 H 0.213076 1.646464 1.180247 0
M  V30 43 H -0.350584 3.211690 0.579572 0
M  V30 44 H -1.222378 1.708587 2.911624 0
M  V30 45 H -1.705485 3.327232 2.351204 0
M  V30 46 H -3.223019 0.504231 3.515271 0
M  V30 47 H -2.478452 -0.293396 2.076824 0
M  V30 48 H -4.219692 0.078169 2.102201 0
M  V30 49 H -4.318094 2.764460 0.664872 0
M  V30 50 H -4.090647 1.054337 0.220862 0
M  V30 51 H -2.313128 3.457583 -0.331649 0
M  V30 52 H -2.990674 2.220562 -1.509351 0
M  V30 53 H -0.375235 -1.861259 -3.400042 0
M  V30 54 H -0.056829 -3.202860 -5.333853 0
M  V30 55 H 1.564608 -4.969826 -5.350276 0
M  V30 56 H 2.892724 -5.415332 -3.398524 0
M  V30 END ATOM
M  V30 BEGIN BOND
M  V30 1 1 1 2
M  V30 2 1 2 3
M  V30 3 1 3 4
M  V30 4 2 4 5
M  V30 5 1 5 6
M  V30 6 2 6 7
M  V30 7 1 7 8
M  V30 8 2 8 9
M  V30 9 1 8 10
M  V30 10 1 10 11
M  V30 11 1 11 12
M  V30 12 1 12 13
M  V30 13 1 13 14
M  V30 14 1 14 15
M  V30 15 1 15 16
M  V30 16 1 16 17
M  V30 17 1 17 18
M  V30 18 1 17 19
M  V30 19 1 19 20
M  V30 20 1 10 21
M  V30 21 2 21 22
M  V30 22 1 22 23
M  V30 23 2 23 24
M  V30 24 1 24 25
M  V30 25 2 25 26
M  V30 26 1 26 27
M  V30 27 1 9 4
M  V30 28 1 20 14
M  V30 29 1 26 21
M  V30 30 1 27 7
M  V30 31 1 1 28
M  V30 32 1 1 29
M  V30 33 1 1 30
M  V30 34 1 2 31
M  V30 35 1 2 32
M  V30 36 1 5 33
M  V30 37 1 6 34
M  V30 38 1 9 35
M  V30 39 1 11 36
M  V30 40 1 11 37
M  V30 41 1 12 38
M  V30 42 1 12 39
M  V30 43 1 13 40
M  V30 44 1 13 41
M  V30 45 1 15 42
M  V30 46 1 15 43
M  V30 47 1 16 44
M  V30 48 1 16 45
M  V30 49 1 18 46
M  V30 50 1 18 47
M  V30 51 1 18 48
M  V30 52 1 19 49
M  V30 53 1 19 50
M  V30 54 1 20 51
M  V30 55 1 20 52
M  V30 56 1 22 53
M  V30 57 1 23 54
M  V30 58 1 24 55
M  V30 59 1 25 56
M  V30 END BOND
M  V30 END CTAB
M  END
>  <Dataset>  (960) 
OralDrugs

>  <Ligand_Instance>  (960) 
nan

>  <PDB_ID>  (960) 
nan

>  <Standardized_SMILES>  (960) 
CCSc1ccc2c(c1)N(CCCN1CCN(C)CC1)c1ccccc1S2

>  <Name>  (960) 
Thiethylperazine

>  <Pocket>  (960) 
nan

>  <ATP_Site>  (960) 
nan

>  <Peripheral>  (960) 
nan

>  <Num_H_Atoms_ProtBoundConf>  (960) 
nan

>  <Num_Resolved_Atoms>  (960) 
nan

>  <Num_Not_Resolved_Atoms>  (960) 
nan

$$$$
CHEMBL1201
     RDKit          3D

  0  0  0  0  0  0  0  0  0  0999 V3000
M  V30 BEGIN CTAB
M  V30 COUNTS 59 62 0 0 0
M  V30 BEGIN ATOM
M  V30 1 C 1.227474 -2.705355 3.796791 0
M  V30 2 N 2.127743 -2.993306 2.713383 0
M  V30 3 C 3.311749 -2.220469 2.701690 0
M  V30 4 C 3.984300 -2.168622 1.376745 0
M  V30 5 N 3.058270 -1.833337 0.271825 0
M  V30 6 C 2.400103 -0.638306 0.637887 0
M  V30 7 C 1.564833 0.011199 -0.462305 0
M  V30 8 C 0.928127 1.221974 -0.022694 0
M  V30 9 C -0.247891 1.783703 0.087435 0
M  V30 10 C -0.381155 3.115414 0.623449 0
M  V30 11 C 0.684214 3.772991 1.174595 0
M  V30 12 C 0.659628 5.031807 1.734899 0
M  V30 13 C -0.585376 5.670065 1.723378 0
M  V30 14 C -1.677615 5.058694 1.186121 0
M  V30 15 C -1.548207 3.803180 0.651943 0
M  V30 16 S -3.045409 3.132757 -0.037692 0
M  V30 17 C -2.597543 1.474713 -0.581307 0
M  V30 18 C -3.649605 0.773657 -1.070782 0
M  V30 19 C -3.387260 -0.530131 -1.499294 0
M  V30 20 C -2.106827 -1.076454 -1.421981 0
M  V30 21 S -2.089166 -2.696773 -2.065444 0
M  V30 22 O -2.916586 -2.772611 -3.346080 0
M  V30 23 O -0.683934 -3.068919 -2.529315 0
M  V30 24 N -2.671182 -3.891247 -1.015748 0
M  V30 25 C -1.939456 -4.049517 0.198350 0
M  V30 26 C -2.943197 -5.097441 -1.732532 0
M  V30 27 C -1.138938 -0.245061 -0.899972 0
M  V30 28 C -1.321291 1.021310 -0.473429 0
M  V30 29 C 2.165180 -2.986267 0.226879 0
M  V30 30 C 1.452354 -3.227092 1.501617 0
M  V30 31 H 0.785368 -1.690679 3.588691 0
M  V30 32 H 0.374617 -3.415067 3.749031 0
M  V30 33 H 1.763653 -2.681765 4.744689 0
M  V30 34 H 4.002374 -2.649586 3.472120 0
M  V30 35 H 3.138578 -1.166319 3.069367 0
M  V30 36 H 4.750825 -1.351186 1.430038 0
M  V30 37 H 4.535236 -3.094389 1.199653 0
M  V30 38 H 3.143261 0.104213 0.974597 0
M  V30 39 H 1.799743 -0.838073 1.545578 0
M  V30 40 H 1.370627 -0.569067 -1.333878 0
M  V30 41 H 2.528531 0.473889 -1.033520 0
M  V30 42 H 1.770406 1.835223 0.352804 0
M  V30 43 H 1.687096 3.381117 1.247256 0
M  V30 44 H 1.471140 5.564476 2.169571 0
M  V30 45 H -0.671628 6.663373 2.149875 0
M  V30 46 H -2.596306 5.601194 1.208396 0
M  V30 47 H -4.650234 1.172028 -1.142028 0
M  V30 48 H -4.262424 -1.058721 -1.890626 0
M  V30 49 H -1.978121 -5.138896 0.458987 0
M  V30 50 H -0.891279 -3.727685 0.026548 0
M  V30 51 H -2.454981 -3.497895 1.006863 0
M  V30 52 H -3.181903 -5.964286 -1.120876 0
M  V30 53 H -3.850029 -4.898483 -2.366915 0
M  V30 54 H -2.135893 -5.287282 -2.491813 0
M  V30 55 H -0.329223 -0.897415 -0.880364 0
M  V30 56 H 1.497496 -2.902663 -0.654344 0
M  V30 57 H 2.842099 -3.851612 0.028372 0
M  V30 58 H 0.559067 -2.529578 1.496411 0
M  V30 59 H 1.017436 -4.270357 1.556654 0
M  V30 END ATOM
M  V30 BEGIN BOND
M  V30 1 1 1 2
M  V30 2 1 2 3
M  V30 3 1 3 4
M  V30 4 1 4 5
M  V30 5 1 5 6
M  V30 6 1 6 7
M  V30 7 1 7 8
M  V30 8 2 8 9
M  V30 9 1 9 10
M  V30 10 2 10 11
M  V30 11 1 11 12
M  V30 12 2 12 13
M  V30 13 1 13 14
M  V30 14 2 14 15
M  V30 15 1 15 16
M  V30 16 1 16 17
M  V30 17 2 17 18
M  V30 18 1 18 19
M  V30 19 2 19 20
M  V30 20 1 20 21
M  V30 21 2 21 22
M  V30 22 2 21 23
M  V30 23 1 21 24
M  V30 24 1 24 25
M  V30 25 1 24 26
M  V30 26 1 20 27
M  V30 27 2 27 28
M  V30 28 1 5 29
M  V30 29 1 29 30
M  V30 30 1 30 2
M  V30 31 1 28 9
M  V30 32 1 15 10
M  V30 33 1 28 17
M  V30 34 1 1 31
M  V30 35 1 1 32
M  V30 36 1 1 33
M  V30 37 1 3 34
M  V30 38 1 3 35
M  V30 39 1 4 36
M  V30 40 1 4 37
M  V30 41 1 6 38
M  V30 42 1 6 39
M  V30 43 1 7 40
M  V30 44 1 7 41
M  V30 45 1 8 42
M  V30 46 1 11 43
M  V30 47 1 12 44
M  V30 48 1 13 45
M  V30 49 1 14 46
M  V30 50 1 18 47
M  V30 51 1 19 48
M  V30 52 1 25 49
M  V30 53 1 25 50
M  V30 54 1 25 51
M  V30 55 1 26 52
M  V30 56 1 26 53
M  V30 57 1 26 54
M  V30 58 1 27 55
M  V30 59 1 29 56
M  V30 60 1 29 57
M  V30 61 1 30 58
M  V30 62 1 30 59
M  V30 END BOND
M  V30 END CTAB
M  END
>  <Dataset>  (961) 
OralDrugs

>  <Ligand_Instance>  (961) 
nan

>  <PDB_ID>  (961) 
nan

>  <Standardized_SMILES>  (961) 
CN1CCN(CC/C=C2/c3ccccc3Sc3ccc(S(=O)(=O)N(C)C)cc32)CC1

>  <Name>  (961) 
Thiothixene

>  <Pocket>  (961) 
nan

>  <ATP_Site>  (961) 
nan

>  <Peripheral>  (961) 
nan

>  <Num_H_Atoms_ProtBoundConf>  (961) 
nan

>  <Num_Resolved_Atoms>  (961) 
nan

>  <Num_Not_Resolved_Atoms>  (961) 
nan

$$$$
CHEMBL1027
     RDKit          3D

  0  0  0  0  0  0  0  0  0  0999 V3000
M  V30 BEGIN CTAB
M  V30 COUNTS 50 52 0 0 0
M  V30 BEGIN ATOM
M  V30 1 C -0.374935 -5.189245 1.950654 0
M  V30 2 C 0.840213 -4.346807 1.844512 0
M  V30 3 C 1.969227 -4.800362 2.446540 0
M  V30 4 C 3.115840 -4.061328 2.238057 0
M  V30 5 S 2.509062 -2.735517 1.176015 0
M  V30 6 C 0.819685 -3.264337 1.104489 0
M  V30 7 C -0.077748 -2.331250 0.389262 0
M  V30 8 C 0.448396 -1.587865 -0.617599 0
M  V30 9 C 0.798285 -0.714730 -1.704916 0
M  V30 10 C 1.910322 0.259212 -1.378606 0
M  V30 11 N 1.609840 1.103045 -0.281046 0
M  V30 12 C 2.667980 2.029719 -0.041897 0
M  V30 13 C 2.476736 2.920864 1.133346 0
M  V30 14 C 1.064723 3.451967 1.250726 0
M  V30 15 C 0.117574 2.286448 1.203594 0 CFG=1
M  V30 16 C -1.288509 2.662199 1.374561 0
M  V30 17 O -2.271332 2.490585 0.578125 0
M  V30 18 O -1.604755 3.298551 2.577163 0
M  V30 19 C 0.297748 1.606345 -0.156487 0
M  V30 20 C -1.522968 -2.165670 0.718540 0
M  V30 21 S -2.102138 -2.708559 2.374762 0
M  V30 22 C -3.880629 -2.240048 1.965505 0
M  V30 23 C -3.793273 -1.752026 0.668471 0
M  V30 24 C -2.584669 -1.725452 0.056976 0
M  V30 25 C -2.574271 -1.226757 -1.341940 0
M  V30 26 H -0.860128 -5.199335 2.922983 0
M  V30 27 H -1.085079 -5.045415 1.118120 0
M  V30 28 H -0.087707 -6.292285 1.812707 0
M  V30 29 H 2.134862 -5.655991 3.075450 0
M  V30 30 H 4.157809 -4.146836 2.565188 0
M  V30 31 H 1.503052 -1.946068 -0.627870 0
M  V30 32 H 1.009021 -1.242605 -2.680600 0
M  V30 33 H -0.080325 -0.059460 -2.003524 0
M  V30 34 H 2.215536 0.828071 -2.292828 0
M  V30 35 H 2.802956 -0.384526 -1.123882 0
M  V30 36 H 2.963895 2.596126 -0.971320 0
M  V30 37 H 3.587769 1.409724 0.175769 0
M  V30 38 H 3.138819 3.805943 1.016396 0
M  V30 39 H 2.780066 2.424977 2.057083 0
M  V30 40 H 0.807168 4.144806 0.438705 0
M  V30 41 H 1.029832 3.945193 2.260951 0
M  V30 42 H 0.416305 1.608003 2.028898 0
M  V30 43 H -2.535988 3.229488 3.012765 0
M  V30 44 H -0.404596 0.734363 -0.224827 0
M  V30 45 H -0.012646 2.374667 -0.895330 0
M  V30 46 H -4.646354 -2.405167 2.733987 0
M  V30 47 H -4.780682 -1.458284 0.352935 0
M  V30 48 H -1.816743 -1.741768 -1.956492 0
M  V30 49 H -3.577020 -1.275124 -1.833430 0
M  V30 50 H -2.328703 -0.148913 -1.321374 0
M  V30 END ATOM
M  V30 BEGIN BOND
M  V30 1 1 1 2
M  V30 2 1 2 3
M  V30 3 2 3 4
M  V30 4 1 4 5
M  V30 5 1 5 6
M  V30 6 1 6 7
M  V30 7 2 7 8 CFG=2
M  V30 8 1 8 9
M  V30 9 1 9 10
M  V30 10 1 10 11
M  V30 11 1 11 12
M  V30 12 1 12 13
M  V30 13 1 13 14
M  V30 14 1 14 15
M  V30 15 1 15 16
M  V30 16 2 16 17
M  V30 17 1 16 18
M  V30 18 1 15 19
M  V30 19 1 7 20
M  V30 20 1 20 21
M  V30 21 1 21 22
M  V30 22 2 22 23
M  V30 23 1 23 24
M  V30 24 1 24 25
M  V30 25 2 6 2
M  V30 26 1 19 11
M  V30 27 2 24 20
M  V30 28 1 1 26
M  V30 29 1 1 27
M  V30 30 1 1 28
M  V30 31 1 3 29
M  V30 32 1 4 30
M  V30 33 1 8 31
M  V30 34 1 9 32
M  V30 35 1 9 33
M  V30 36 1 10 34
M  V30 37 1 10 35
M  V30 38 1 12 36
M  V30 39 1 12 37
M  V30 40 1 13 38
M  V30 41 1 13 39
M  V30 42 1 14 40
M  V30 43 1 14 41
M  V30 44 1 15 42 CFG=1
M  V30 45 1 18 43
M  V30 46 1 19 44
M  V30 47 1 19 45
M  V30 48 1 22 46
M  V30 49 1 23 47
M  V30 50 1 25 48
M  V30 51 1 25 49
M  V30 52 1 25 50
M  V30 END BOND
M  V30 END CTAB
M  END
>  <Dataset>  (962) 
OralDrugs

>  <Ligand_Instance>  (962) 
nan

>  <PDB_ID>  (962) 
nan

>  <Standardized_SMILES>  (962) 
Cc1ccsc1C(=CCCN1CCC[C@@H](C(=O)O)C1)c1sccc1C

>  <Name>  (962) 
Tiagabine

>  <Pocket>  (962) 
nan

>  <ATP_Site>  (962) 
nan

>  <Peripheral>  (962) 
nan

>  <Num_H_Atoms_ProtBoundConf>  (962) 
nan

>  <Num_Resolved_Atoms>  (962) 
nan

>  <Num_Not_Resolved_Atoms>  (962) 
nan

$$$$
CHEMBL398435
     RDKit          3D

  0  0  0  0  0  0  0  0  0  0999 V3000
M  V30 BEGIN CTAB
M  V30 COUNTS 64 68 0 0 0
M  V30 BEGIN ATOM
M  V30 1 C 4.587364 0.252797 1.302263 0
M  V30 2 C 5.612333 -0.790299 0.919309 0
M  V30 3 C 4.986484 -2.056729 0.415439 0
M  V30 4 S 3.978636 -1.879525 -1.046350 0
M  V30 5 C 2.507244 -0.926984 -0.833589 0
M  V30 6 N 2.435907 0.401391 -1.022699 0
M  V30 7 C 1.315893 1.122661 -0.858150 0
M  V30 8 N 1.327259 2.523229 -1.081477 0
M  V30 9 C 0.177767 3.382161 -0.928358 0 CFG=2
M  V30 10 C 0.377662 4.866543 -1.227509 0
M  V30 11 C 0.261607 4.375265 0.193471 0 CFG=1
M  V30 12 C -0.959547 4.742357 0.969282 0
M  V30 13 C -0.738304 5.086000 2.303630 0
M  V30 14 C -1.818999 5.445409 3.109338 0
M  V30 15 C -3.075802 5.444321 2.540189 0
M  V30 16 F -4.074673 5.805065 3.388037 0
M  V30 17 C -3.266989 5.097323 1.206964 0
M  V30 18 F -4.546481 5.126381 0.734534 0
M  V30 19 C -2.208290 4.738527 0.393897 0
M  V30 20 C 0.192374 0.443072 -0.474738 0
M  V30 21 N -1.057885 0.868478 -0.232013 0
M  V30 22 N -1.748703 -0.204505 0.105643 0
M  V30 23 N -0.970752 -1.273789 0.079810 0
M  V30 24 C -1.484745 -2.563336 0.407132 0 CFG=2
M  V30 25 C -0.581547 -3.696416 -0.012780 0
M  V30 26 C -1.557277 -4.866565 0.183135 0 CFG=2
M  V30 27 O -1.215462 -5.980885 -0.538645 0
M  V30 28 C -1.003795 -7.120887 0.199815 0
M  V30 29 C -2.176717 -7.589874 1.006287 0
M  V30 30 O -1.819054 -8.762660 1.710741 0
M  V30 31 C -2.853008 -4.315424 -0.391110 0 CFG=1
M  V30 32 O -3.942033 -4.558299 0.409201 0
M  V30 33 C -2.672286 -2.826933 -0.524787 0 CFG=1
M  V30 34 O -3.774897 -2.085074 -0.154313 0
M  V30 35 C 0.259957 -0.923024 -0.278846 0
M  V30 36 N 1.399140 -1.626570 -0.450944 0
M  V30 37 H 3.612251 -0.257465 1.411486 0
M  V30 38 H 4.581709 1.102234 0.602282 0
M  V30 39 H 4.811022 0.683751 2.307262 0
M  V30 40 H 6.310750 -0.347783 0.164444 0
M  V30 41 H 6.257179 -0.963823 1.810515 0
M  V30 42 H 5.812630 -2.751932 0.174086 0
M  V30 43 H 4.342442 -2.460579 1.231192 0
M  V30 44 H 2.241608 2.976265 -1.382192 0
M  V30 45 H -0.794344 3.006923 -1.261686 0
M  V30 46 H 1.343525 5.118537 -1.667844 0
M  V30 47 H -0.493863 5.452983 -1.582277 0
M  V30 48 H 1.213037 4.422899 0.759822 0
M  V30 49 H 0.246152 5.091553 2.765993 0
M  V30 50 H -1.641818 5.709332 4.136754 0
M  V30 51 H -2.354788 4.469236 -0.639290 0
M  V30 52 H -1.754687 -2.700198 1.457677 0
M  V30 53 H -0.402061 -3.622772 -1.099741 0
M  V30 54 H 0.321933 -3.812509 0.596296 0
M  V30 55 H -1.616321 -5.040043 1.268934 0
M  V30 56 H -0.756511 -7.932823 -0.528723 0
M  V30 57 H -0.118437 -7.060684 0.868481 0
M  V30 58 H -2.442464 -6.860202 1.807025 0
M  V30 59 H -3.057343 -7.849198 0.418334 0
M  V30 60 H -2.612299 -9.231565 2.077981 0
M  V30 61 H -3.015143 -4.698768 -1.441810 0
M  V30 62 H -4.372102 -3.745329 0.771164 0
M  V30 63 H -2.320741 -2.547198 -1.546057 0
M  V30 64 H -4.003233 -1.409425 -0.868203 0
M  V30 END ATOM
M  V30 BEGIN BOND
M  V30 1 1 1 2
M  V30 2 1 2 3
M  V30 3 1 3 4
M  V30 4 1 4 5
M  V30 5 2 5 6
M  V30 6 1 6 7
M  V30 7 1 7 8
M  V30 8 1 8 9
M  V30 9 1 9 10
M  V30 10 1 10 11
M  V30 11 1 11 12
M  V30 12 2 12 13
M  V30 13 1 13 14
M  V30 14 2 14 15
M  V30 15 1 15 16
M  V30 16 1 15 17
M  V30 17 1 17 18
M  V30 18 2 17 19
M  V30 19 2 7 20
M  V30 20 1 20 21
M  V30 21 2 21 22
M  V30 22 1 22 23
M  V30 23 1 23 24
M  V30 24 1 24 25
M  V30 25 1 25 26
M  V30 26 1 26 27
M  V30 27 1 27 28
M  V30 28 1 28 29
M  V30 29 1 29 30
M  V30 30 1 26 31
M  V30 31 1 31 32
M  V30 32 1 31 33
M  V30 33 1 33 34
M  V30 34 1 23 35
M  V30 35 2 35 36
M  V30 36 1 36 5
M  V30 37 1 11 9
M  V30 38 1 19 12
M  V30 39 1 35 20
M  V30 40 1 33 24
M  V30 41 1 1 37
M  V30 42 1 1 38
M  V30 43 1 1 39
M  V30 44 1 2 40
M  V30 45 1 2 41
M  V30 46 1 3 42
M  V30 47 1 3 43
M  V30 48 1 8 44
M  V30 49 1 9 45 CFG=3
M  V30 50 1 10 46
M  V30 51 1 10 47
M  V30 52 1 11 48 CFG=1
M  V30 53 1 13 49
M  V30 54 1 14 50
M  V30 55 1 19 51
M  V30 56 1 24 52 CFG=1
M  V30 57 1 25 53
M  V30 58 1 25 54
M  V30 59 1 26 55 CFG=1
M  V30 60 1 28 56
M  V30 61 1 28 57
M  V30 62 1 29 58
M  V30 63 1 29 59
M  V30 64 1 30 60
M  V30 65 1 31 61 CFG=3
M  V30 66 1 32 62
M  V30 67 1 33 63 CFG=3
M  V30 68 1 34 64
M  V30 END BOND
M  V30 END CTAB
M  END
>  <Dataset>  (963) 
OralDrugs

>  <Ligand_Instance>  (963) 
nan

>  <PDB_ID>  (963) 
nan

>  <Standardized_SMILES>  (963) 
CCCSc1nc(N[C@@H]2C[C@H]2c2ccc(F)c(F)c2)c2nnn([C@@H]3C[C@H](OCCO)[C@@H](O)[C@H]3O)c2n1

>  <Name>  (963) 
Ticagrelor

>  <Pocket>  (963) 
nan

>  <ATP_Site>  (963) 
nan

>  <Peripheral>  (963) 
nan

>  <Num_H_Atoms_ProtBoundConf>  (963) 
nan

>  <Num_Resolved_Atoms>  (963) 
nan

>  <Num_Not_Resolved_Atoms>  (963) 
nan

$$$$
CHEMBL1200448
     RDKit          3D

  0  0  0  0  0  0  0  0  0  0999 V3000
M  V30 BEGIN CTAB
M  V30 COUNTS 26 26 0 0 0
M  V30 BEGIN ATOM
M  V30 1 O 1.872357 -3.312156 2.057800 0
M  V30 2 P 0.524735 -2.690324 1.841437 0
M  V30 3 O -0.722117 -3.653200 2.466181 0
M  V30 4 O 0.263873 -2.491322 0.185697 0
M  V30 5 C 0.501337 -1.088654 2.717728 0
M  V30 6 S 1.644430 0.091712 2.019018 0
M  V30 7 C 1.269729 0.632909 0.394821 0
M  V30 8 C 0.496389 1.713501 0.020611 0
M  V30 9 C 0.262531 2.055009 -1.296855 0
M  V30 10 C 0.828609 1.279707 -2.287449 0
M  V30 11 Cl 0.518205 1.732212 -3.958580 0
M  V30 12 C 1.617210 0.178407 -1.955992 0
M  V30 13 C 1.837897 -0.145309 -0.612271 0
M  V30 14 P -1.177927 -0.497089 2.913754 0
M  V30 15 O -1.790632 -0.977594 4.232838 0
M  V30 16 O -2.179291 -1.184020 1.708429 0
M  V30 17 O -1.331959 1.168360 2.908941 0
M  V30 18 H -1.176225 -4.125647 1.737373 0
M  V30 19 H -0.688512 -2.629531 -0.046744 0
M  V30 20 H 0.875229 -1.310032 3.758279 0
M  V30 21 H 0.083212 2.278978 0.829621 0
M  V30 22 H -0.355502 2.917482 -1.520419 0
M  V30 23 H 1.999889 -0.343394 -2.808948 0
M  V30 24 H 2.471959 -1.028662 -0.556458 0
M  V30 25 H -1.966149 -0.774052 0.827835 0
M  V30 26 H -1.903322 1.465782 2.141499 0
M  V30 END ATOM
M  V30 BEGIN BOND
M  V30 1 2 1 2
M  V30 2 1 2 3
M  V30 3 1 2 4
M  V30 4 1 2 5
M  V30 5 1 5 6
M  V30 6 1 6 7
M  V30 7 2 7 8
M  V30 8 1 8 9
M  V30 9 2 9 10
M  V30 10 1 10 11
M  V30 11 1 10 12
M  V30 12 2 12 13
M  V30 13 1 5 14
M  V30 14 2 14 15
M  V30 15 1 14 16
M  V30 16 1 14 17
M  V30 17 1 13 7
M  V30 18 1 3 18
M  V30 19 1 4 19
M  V30 20 1 5 20
M  V30 21 1 8 21
M  V30 22 1 9 22
M  V30 23 1 12 23
M  V30 24 1 13 24
M  V30 25 1 16 25
M  V30 26 1 17 26
M  V30 END BOND
M  V30 END CTAB
M  END
>  <Dataset>  (964) 
OralDrugs

>  <Ligand_Instance>  (964) 
nan

>  <PDB_ID>  (964) 
nan

>  <Standardized_SMILES>  (964) 
O=P(O)(O)C(Sc1ccc(Cl)cc1)P(=O)(O)O

>  <Name>  (964) 
Tiludronate Disodium

>  <Pocket>  (964) 
nan

>  <ATP_Site>  (964) 
nan

>  <Peripheral>  (964) 
nan

>  <Num_H_Atoms_ProtBoundConf>  (964) 
nan

>  <Num_Resolved_Atoms>  (964) 
nan

>  <Num_Not_Resolved_Atoms>  (964) 
nan

$$$$
CHEMBL499
     RDKit          3D

  0  0  0  0  0  0  0  0  0  0999 V3000
M  V30 BEGIN CTAB
M  V30 COUNTS 45 46 0 0 0
M  V30 BEGIN ATOM
M  V30 1 C 0.840281 -4.672606 2.470296 0
M  V30 2 C 0.667789 -3.667052 1.325136 0
M  V30 3 C -0.699883 -3.043084 1.554233 0
M  V30 4 C 0.742738 -4.382393 0.014003 0
M  V30 5 N 1.714927 -2.678942 1.509882 0
M  V30 6 C 1.692211 -1.645231 0.499256 0
M  V30 7 C 2.818005 -0.676759 0.787873 0 CFG=2
M  V30 8 O 2.668429 -0.095481 2.045540 0
M  V30 9 C 2.793441 0.479136 -0.206773 0
M  V30 10 O 1.530914 1.125607 -0.047479 0
M  V30 11 C 1.193400 2.211474 -0.801310 0
M  V30 12 N 2.083604 2.776425 -1.804030 0
M  V30 13 S 1.065519 4.133139 -2.404180 0
M  V30 14 N -0.342430 3.928327 -1.419000 0
M  V30 15 C -0.001265 2.741494 -0.579269 0
M  V30 16 N -1.065976 2.459709 0.276818 0
M  V30 17 C -0.889450 2.485565 1.719648 0
M  V30 18 C -1.522401 1.181612 2.223937 0
M  V30 19 O -2.882475 1.198308 1.876857 0
M  V30 20 C -3.035442 1.019041 0.525271 0
M  V30 21 C -2.368290 2.135168 -0.272763 0
M  V30 22 H 1.923772 -4.790118 2.618438 0
M  V30 23 H 0.309222 -5.612052 2.230794 0
M  V30 24 H 0.445667 -4.161695 3.377588 0
M  V30 25 H -0.769161 -2.717597 2.615981 0
M  V30 26 H -0.895067 -2.181097 0.889851 0
M  V30 27 H -1.466188 -3.814615 1.382319 0
M  V30 28 H 0.299057 -5.405192 0.147107 0
M  V30 29 H 1.814466 -4.504125 -0.240089 0
M  V30 30 H 0.179193 -3.847058 -0.778678 0
M  V30 31 H 1.638730 -2.320762 2.468110 0
M  V30 32 H 1.871691 -2.085392 -0.485596 0
M  V30 33 H 0.763360 -1.050521 0.525404 0
M  V30 34 H 3.810464 -1.139199 0.762417 0
M  V30 35 H 3.078544 0.802430 2.055961 0
M  V30 36 H 2.992619 0.145919 -1.228787 0
M  V30 37 H 3.577957 1.191652 0.084150 0
M  V30 38 H 0.184632 2.408082 1.975193 0
M  V30 39 H -1.387705 3.361996 2.150248 0
M  V30 40 H -1.064491 0.378377 1.594304 0
M  V30 41 H -1.363051 1.040205 3.294659 0
M  V30 42 H -4.120361 1.058968 0.290711 0
M  V30 43 H -2.679005 0.018460 0.182465 0
M  V30 44 H -2.305519 1.809872 -1.328562 0
M  V30 45 H -3.013640 3.027001 -0.157787 0
M  V30 END ATOM
M  V30 BEGIN BOND
M  V30 1 1 1 2
M  V30 2 1 2 3
M  V30 3 1 2 4
M  V30 4 1 2 5
M  V30 5 1 5 6
M  V30 6 1 6 7
M  V30 7 1 7 8
M  V30 8 1 7 9
M  V30 9 1 9 10
M  V30 10 1 10 11
M  V30 11 2 11 12
M  V30 12 1 12 13
M  V30 13 1 13 14
M  V30 14 2 14 15
M  V30 15 1 15 16
M  V30 16 1 16 17
M  V30 17 1 17 18
M  V30 18 1 18 19
M  V30 19 1 19 20
M  V30 20 1 20 21
M  V30 21 1 15 11
M  V30 22 1 21 16
M  V30 23 1 1 22
M  V30 24 1 1 23
M  V30 25 1 1 24
M  V30 26 1 3 25
M  V30 27 1 3 26
M  V30 28 1 3 27
M  V30 29 1 4 28
M  V30 30 1 4 29
M  V30 31 1 4 30
M  V30 32 1 5 31
M  V30 33 1 6 32
M  V30 34 1 6 33
M  V30 35 1 7 34 CFG=1
M  V30 36 1 8 35
M  V30 37 1 9 36
M  V30 38 1 9 37
M  V30 39 1 17 38
M  V30 40 1 17 39
M  V30 41 1 18 40
M  V30 42 1 18 41
M  V30 43 1 20 42
M  V30 44 1 20 43
M  V30 45 1 21 44
M  V30 46 1 21 45
M  V30 END BOND
M  V30 END CTAB
M  END
>  <Dataset>  (965) 
OralDrugs

>  <Ligand_Instance>  (965) 
nan

>  <PDB_ID>  (965) 
nan

>  <Standardized_SMILES>  (965) 
CC(C)(C)NC[C@H](O)COc1nsnc1N1CCOCC1

>  <Name>  (965) 
Timolol

>  <Pocket>  (965) 
nan

>  <ATP_Site>  (965) 
nan

>  <Peripheral>  (965) 
nan

>  <Num_H_Atoms_ProtBoundConf>  (965) 
nan

>  <Num_Resolved_Atoms>  (965) 
nan

>  <Num_Not_Resolved_Atoms>  (965) 
nan

$$$$
CHEMBL1220
     RDKit          3D

  0  0  0  0  0  0  0  0  0  0999 V3000
M  V30 BEGIN CTAB
M  V30 COUNTS 29 29 0 0 0
M  V30 BEGIN ATOM
M  V30 1 C -2.548616 -1.422665 0.367001 0
M  V30 2 C -2.294528 -2.124691 1.655235 0
M  V30 3 S -0.767668 -1.726348 2.375094 0
M  V30 4 O -0.863110 -0.275527 2.825136 0
M  V30 5 O -0.727839 -2.491476 3.715549 0
M  V30 6 C 0.692042 -2.087608 1.559280 0
M  V30 7 C 1.093201 -1.504400 0.280796 0
M  V30 8 N 1.290256 -0.104812 0.183503 0
M  V30 9 C 0.712394 1.063176 -0.133190 0
M  V30 10 N -0.618292 0.988364 -0.614445 0 CHG=1 VAL=4
M  V30 11 O -1.520759 1.747195 -1.013405 0
M  V30 12 O -1.586708 1.857058 -1.047437 0 CHG=-1 VAL=1
M  V30 13 C 1.463549 2.203118 0.021509 0
M  V30 14 N 2.644003 1.730925 0.482468 0
M  V30 15 C 2.525605 0.372611 0.571839 0
M  V30 16 C 3.753308 -0.321441 1.070603 0
M  V30 17 H -2.710223 -0.324003 0.590529 0
M  V30 18 H -1.816349 -1.526095 -0.420280 0
M  V30 19 H -3.560538 -1.736053 -0.033994 0
M  V30 20 H -2.434290 -3.226961 1.493325 0
M  V30 21 H -3.136889 -1.788938 2.346575 0
M  V30 22 H 1.554192 -2.010292 2.303896 0
M  V30 23 H 0.697085 -3.226426 1.388044 0
M  V30 24 H 0.428683 -1.849615 -0.547889 0
M  V30 25 H 2.079629 -2.014935 -0.007943 0
M  V30 26 H 1.067697 3.179834 -0.211801 0
M  V30 27 H 3.607287 -1.409269 1.199424 0
M  V30 28 H 4.532801 -0.187962 0.272659 0
M  V30 29 H 4.166973 0.164836 1.976614 0
M  V30 END ATOM
M  V30 BEGIN BOND
M  V30 1 1 1 2
M  V30 2 1 2 3
M  V30 3 2 3 4
M  V30 4 2 3 5
M  V30 5 1 3 6
M  V30 6 1 6 7
M  V30 7 1 7 8
M  V30 8 1 8 9
M  V30 9 1 9 10
M  V30 10 2 10 11
M  V30 11 1 10 12
M  V30 12 2 9 13
M  V30 13 1 13 14
M  V30 14 2 14 15
M  V30 15 1 15 16
M  V30 16 1 15 8
M  V30 17 1 1 17
M  V30 18 1 1 18
M  V30 19 1 1 19
M  V30 20 1 2 20
M  V30 21 1 2 21
M  V30 22 1 6 22
M  V30 23 1 6 23
M  V30 24 1 7 24
M  V30 25 1 7 25
M  V30 26 1 13 26
M  V30 27 1 16 27
M  V30 28 1 16 28
M  V30 29 1 16 29
M  V30 END BOND
M  V30 END CTAB
M  END
>  <Dataset>  (966) 
OralDrugs

>  <Ligand_Instance>  (966) 
nan

>  <PDB_ID>  (966) 
nan

>  <Standardized_SMILES>  (966) 
CCS(=O)(=O)CCn1c([N+](=O)[O-])cnc1C

>  <Name>  (966) 
Tinidazole

>  <Pocket>  (966) 
nan

>  <ATP_Site>  (966) 
nan

>  <Peripheral>  (966) 
nan

>  <Num_H_Atoms_ProtBoundConf>  (966) 
nan

>  <Num_Resolved_Atoms>  (966) 
nan

>  <Num_Not_Resolved_Atoms>  (966) 
nan

$$$$
CHEMBL1314
     RDKit          3D

  0  0  0  0  0  0  0  0  0  0999 V3000
M  V30 BEGIN CTAB
M  V30 COUNTS 19 18 0 0 0
M  V30 BEGIN ATOM
M  V30 1 C 0.681178 2.233306 1.794304 0
M  V30 2 C 1.147093 1.052178 2.581946 0
M  V30 3 S -0.253255 0.174494 3.338162 0
M  V30 4 C 1.829365 0.033231 1.706568 0
M  V30 5 O 3.027945 -0.295774 1.910143 0
M  V30 6 N 1.021199 -0.505129 0.663208 0
M  V30 7 C 1.707442 -1.495973 -0.176744 0
M  V30 8 C 0.687231 -1.918106 -1.187016 0
M  V30 9 O 1.034162 -2.788306 -2.052028 0
M  V30 10 O -0.617694 -1.472529 -1.304335 0
M  V30 11 H -0.313888 1.997598 1.317133 0
M  V30 12 H 1.418526 2.391275 0.969713 0
M  V30 13 H 0.575146 3.100646 2.448418 0
M  V30 14 H 1.805876 1.406682 3.392606 0
M  V30 15 H -1.434890 0.431939 2.640022 0
M  V30 16 H 0.023438 -0.200982 0.529870 0
M  V30 17 H 2.600506 -1.100315 -0.665610 0
M  V30 18 H 1.974302 -2.397486 0.408203 0
M  V30 19 H -1.115185 -1.355122 -2.183636 0
M  V30 END ATOM
M  V30 BEGIN BOND
M  V30 1 1 1 2
M  V30 2 1 2 3
M  V30 3 1 2 4
M  V30 4 2 4 5
M  V30 5 1 4 6
M  V30 6 1 6 7
M  V30 7 1 7 8
M  V30 8 2 8 9
M  V30 9 1 8 10
M  V30 10 1 1 11
M  V30 11 1 1 12
M  V30 12 1 1 13
M  V30 13 1 2 14
M  V30 14 1 3 15
M  V30 15 1 6 16
M  V30 16 1 7 17
M  V30 17 1 7 18
M  V30 18 1 10 19
M  V30 END BOND
M  V30 END CTAB
M  END
>  <Dataset>  (967) 
OralDrugs

>  <Ligand_Instance>  (967) 
nan

>  <PDB_ID>  (967) 
nan

>  <Standardized_SMILES>  (967) 
CC(S)C(=O)NCC(=O)O

>  <Name>  (967) 
Tiopronin

>  <Pocket>  (967) 
nan

>  <ATP_Site>  (967) 
nan

>  <Peripheral>  (967) 
nan

>  <Num_H_Atoms_ProtBoundConf>  (967) 
nan

>  <Num_Resolved_Atoms>  (967) 
nan

>  <Num_Not_Resolved_Atoms>  (967) 
nan

$$$$
CHEMBL235668
     RDKit          3D

  0  0  0  0  0  0  0  0  0  0999 V3000
M  V30 BEGIN CTAB
M  V30 COUNTS 27 28 0 0 0
M  V30 BEGIN ATOM
M  V30 1 N 0.305065 -1.956327 3.453388 0
M  V30 2 C -0.498971 -1.852678 2.440844 0
M  V30 3 C -1.959699 -2.143981 2.493535 0
M  V30 4 C -2.330594 -2.079952 1.026008 0
M  V30 5 C -1.391593 -0.998371 0.538839 0
M  V30 6 N -0.140235 -1.451152 1.117630 0
M  V30 7 C 1.140347 -1.490069 0.486328 0
M  V30 8 C 1.516938 -0.137996 0.009024 0
M  V30 9 N 1.404801 0.144121 -1.324896 0
M  V30 10 C 1.694967 1.312383 -1.948752 0
M  V30 11 O 1.541197 1.417347 -3.174256 0
M  V30 12 N 2.147768 2.328366 -1.189861 0
M  V30 13 C 2.282726 2.128091 0.115062 0
M  V30 14 O 2.706568 3.074607 0.835491 0
M  V30 15 C 1.982658 0.935439 0.725841 0
M  V30 16 Cl 2.166660 0.679632 2.445442 0
M  V30 17 H -0.141023 -2.270463 4.358381 0
M  V30 18 H -2.136438 -3.170178 2.879344 0
M  V30 19 H -2.502793 -1.361662 3.082298 0
M  V30 20 H -3.394733 -1.824114 0.873825 0
M  V30 21 H -2.031320 -3.027390 0.552116 0
M  V30 22 H -1.687332 -0.069951 1.066043 0
M  V30 23 H -1.362916 -0.893198 -0.557718 0
M  V30 24 H 1.923724 -1.846222 1.187893 0
M  V30 25 H 1.193531 -2.176869 -0.378335 0
M  V30 26 H 1.048623 -0.637847 -1.952522 0
M  V30 27 H 2.367736 3.224071 -1.682760 0
M  V30 END ATOM
M  V30 BEGIN BOND
M  V30 1 2 1 2 CFG=2
M  V30 2 1 2 3
M  V30 3 1 3 4
M  V30 4 1 4 5
M  V30 5 1 5 6
M  V30 6 1 6 7
M  V30 7 1 7 8
M  V30 8 1 8 9
M  V30 9 1 9 10
M  V30 10 2 10 11
M  V30 11 1 10 12
M  V30 12 1 12 13
M  V30 13 2 13 14
M  V30 14 1 13 15
M  V30 15 1 15 16
M  V30 16 1 6 2
M  V30 17 2 15 8
M  V30 18 1 1 17
M  V30 19 1 3 18
M  V30 20 1 3 19
M  V30 21 1 4 20
M  V30 22 1 4 21
M  V30 23 1 5 22
M  V30 24 1 5 23
M  V30 25 1 7 24
M  V30 26 1 7 25
M  V30 27 1 9 26
M  V30 28 1 12 27
M  V30 END BOND
M  V30 END CTAB
M  END
>  <Dataset>  (968) 
OralDrugs

>  <Ligand_Instance>  (968) 
nan

>  <PDB_ID>  (968) 
nan

>  <Standardized_SMILES>  (968) 
N=C1CCCN1Cc1[nH]c(=O)[nH]c(=O)c1Cl

>  <Name>  (968) 
Tipiracil

>  <Pocket>  (968) 
nan

>  <ATP_Site>  (968) 
nan

>  <Peripheral>  (968) 
nan

>  <Num_H_Atoms_ProtBoundConf>  (968) 
nan

>  <Num_Resolved_Atoms>  (968) 
nan

>  <Num_Not_Resolved_Atoms>  (968) 
nan

$$$$
CHEMBL222559
     RDKit          3D

  0  0  0  0  0  0  0  0  0  0999 V3000
M  V30 BEGIN CTAB
M  V30 COUNTS 75 78 0 0 0
M  V30 BEGIN ATOM
M  V30 1 C -0.057132 -4.904368 1.152055 0
M  V30 2 C -0.394834 -4.106698 -0.115574 0
M  V30 3 C -1.677522 -3.400456 0.167973 0
M  V30 4 C -2.184860 -2.545341 -0.980684 0 CFG=1
M  V30 5 C -2.402187 -3.433028 -2.149588 0
M  V30 6 C -2.913694 -2.789703 -3.393775 0
M  V30 7 C -2.012241 -1.738529 -3.911991 0
M  V30 8 C -2.122626 -0.381786 -3.597794 0
M  V30 9 C -1.276152 0.589138 -4.081276 0
M  V30 10 C -0.246632 0.239489 -4.928704 0
M  V30 11 C -0.129234 -1.097252 -5.245079 0
M  V30 12 C -0.965969 -2.080809 -4.771047 0
M  V30 13 C -3.510402 -1.966983 -0.538181 0
M  V30 14 C -3.335511 -0.814329 0.400116 0
M  V30 15 O -4.466908 -0.560649 1.204738 0
M  V30 16 C -2.270315 -0.002496 0.578850 0
M  V30 17 C -2.283183 1.083466 1.553903 0 CFG=2
M  V30 18 C -2.469650 2.458640 0.994462 0
M  V30 19 C -1.413913 2.907713 0.023547 0
M  V30 20 C -1.219747 0.991614 2.591699 0
M  V30 21 C -1.023323 1.993695 3.512286 0
M  V30 22 C -0.062754 1.950892 4.497837 0
M  V30 23 C 0.771775 0.860518 4.604914 0
M  V30 24 C 0.607496 -0.167962 3.700400 0
M  V30 25 N 1.478169 -1.267533 3.840414 0
M  V30 26 S 3.167968 -1.263967 4.100762 0
M  V30 27 O 3.629718 -2.688340 4.155395 0
M  V30 28 O 3.533641 -0.613236 5.413058 0
M  V30 29 C 4.027135 -0.492130 2.775931 0
M  V30 30 C 3.366680 0.031475 1.676142 0
M  V30 31 C 4.210946 0.592513 0.747658 0
M  V30 32 C 5.581048 0.637219 0.883525 0
M  V30 33 C 6.419903 1.260106 -0.163029 0
M  V30 34 F 5.718182 1.367112 -1.356296 0
M  V30 35 F 6.831707 2.525825 0.185931 0
M  V30 36 F 7.556838 0.493448 -0.434792 0
M  V30 37 C 6.147478 0.087892 2.016982 0
M  V30 38 N 5.360744 -0.472369 2.953265 0
M  V30 39 C -0.363935 -0.074052 2.739930 0
M  V30 40 C -1.203349 -0.399629 -0.328636 0
M  V30 41 O -0.124900 0.242461 -0.308059 0
M  V30 42 O -1.312030 -1.456104 -1.221154 0
M  V30 43 H -0.312479 -5.961986 1.035942 0
M  V30 44 H 1.015424 -4.830617 1.391155 0
M  V30 45 H -0.594966 -4.498286 2.033275 0
M  V30 46 H 0.421417 -3.373250 -0.349674 0
M  V30 47 H -0.412949 -4.843256 -0.919951 0
M  V30 48 H -1.545765 -2.768966 1.045695 0
M  V30 49 H -2.467975 -4.193212 0.289261 0
M  V30 50 H -3.193799 -4.179021 -1.833677 0
M  V30 51 H -1.503164 -4.026330 -2.432666 0
M  V30 52 H -2.921440 -3.591742 -4.191706 0
M  V30 53 H -3.961775 -2.422095 -3.291012 0
M  V30 54 H -2.938744 -0.077014 -2.926299 0
M  V30 55 H -1.384360 1.633031 -3.821501 0
M  V30 56 H 0.474635 0.913399 -5.366797 0
M  V30 57 H 0.662160 -1.440860 -5.909502 0
M  V30 58 H -0.875939 -3.119782 -5.016197 0
M  V30 59 H -4.104142 -1.658392 -1.418595 0
M  V30 60 H -4.006856 -2.773258 0.044489 0
M  V30 61 H -5.202186 0.061191 0.900232 0
M  V30 62 H -3.238436 0.919943 2.173603 0
M  V30 63 H -3.499081 2.524812 0.519699 0
M  V30 64 H -2.507785 3.228400 1.789621 0
M  V30 65 H -1.537993 4.016426 -0.205165 0
M  V30 66 H -0.399699 2.830433 0.411148 0
M  V30 67 H -1.574448 2.428123 -0.967223 0
M  V30 68 H -1.607958 2.896297 3.541163 0
M  V30 69 H 0.087736 2.754732 5.229302 0
M  V30 70 H 1.529603 0.816529 5.374569 0
M  V30 71 H 0.915232 -2.155628 3.758648 0
M  V30 72 H 2.301223 -0.022407 1.607138 0
M  V30 73 H 3.760493 1.027859 -0.150766 0
M  V30 74 H 7.237167 0.128233 2.116222 0
M  V30 75 H -0.423462 -0.919889 2.094304 0
M  V30 END ATOM
M  V30 BEGIN BOND
M  V30 1 1 1 2
M  V30 2 1 2 3
M  V30 3 1 4 3 CFG=1
M  V30 4 1 4 5
M  V30 5 1 5 6
M  V30 6 1 6 7
M  V30 7 2 7 8
M  V30 8 1 8 9
M  V30 9 2 9 10
M  V30 10 1 10 11
M  V30 11 2 11 12
M  V30 12 1 4 13
M  V30 13 1 13 14
M  V30 14 1 14 15
M  V30 15 2 14 16
M  V30 16 1 16 17
M  V30 17 1 17 18
M  V30 18 1 18 19
M  V30 19 1 17 20
M  V30 20 2 20 21
M  V30 21 1 21 22
M  V30 22 2 22 23
M  V30 23 1 23 24
M  V30 24 1 24 25
M  V30 25 1 25 26
M  V30 26 2 26 27
M  V30 27 2 26 28
M  V30 28 1 26 29
M  V30 29 2 29 30
M  V30 30 1 30 31
M  V30 31 2 31 32
M  V30 32 1 32 33
M  V30 33 1 33 34
M  V30 34 1 33 35
M  V30 35 1 33 36
M  V30 36 1 32 37
M  V30 37 2 37 38
M  V30 38 2 24 39
M  V30 39 1 16 40
M  V30 40 2 40 41
M  V30 41 1 40 42
M  V30 42 1 42 4
M  V30 43 1 12 7
M  V30 44 1 39 20
M  V30 45 1 38 29
M  V30 46 1 1 43
M  V30 47 1 1 44
M  V30 48 1 1 45
M  V30 49 1 2 46
M  V30 50 1 2 47
M  V30 51 1 3 48
M  V30 52 1 3 49
M  V30 53 1 5 50
M  V30 54 1 5 51
M  V30 55 1 6 52
M  V30 56 1 6 53
M  V30 57 1 8 54
M  V30 58 1 9 55
M  V30 59 1 10 56
M  V30 60 1 11 57
M  V30 61 1 12 58
M  V30 62 1 13 59
M  V30 63 1 13 60
M  V30 64 1 15 61
M  V30 65 1 17 62 CFG=1
M  V30 66 1 18 63
M  V30 67 1 18 64
M  V30 68 1 19 65
M  V30 69 1 19 66
M  V30 70 1 19 67
M  V30 71 1 21 68
M  V30 72 1 22 69
M  V30 73 1 23 70
M  V30 74 1 25 71
M  V30 75 1 30 72
M  V30 76 1 31 73
M  V30 77 1 37 74
M  V30 78 1 39 75
M  V30 END BOND
M  V30 END CTAB
M  END
>  <Dataset>  (969) 
OralDrugs

>  <Ligand_Instance>  (969) 
nan

>  <PDB_ID>  (969) 
nan

>  <Standardized_SMILES>  (969) 
CCC[C@@]1(CCc2ccccc2)CC(O)=C([C@H](CC)c2cccc(NS(=O)(=O)c3ccc(C(F)(F)F)cn3)c2)C(=O)O1

>  <Name>  (969) 
Tipranavir

>  <Pocket>  (969) 
nan

>  <ATP_Site>  (969) 
nan

>  <Peripheral>  (969) 
nan

>  <Num_H_Atoms_ProtBoundConf>  (969) 
nan

>  <Num_Resolved_Atoms>  (969) 
nan

>  <Num_Not_Resolved_Atoms>  (969) 
nan

$$$$
CHEMBL4071161
     RDKit          3D

  0  0  0  0  0  0  0  0  0  0999 V3000
M  V30 BEGIN CTAB
M  V30 COUNTS 56 60 0 0 0
M  V30 BEGIN ATOM
M  V30 1 C 3.594758 -3.449584 3.531988 0
M  V30 2 C 3.658380 -2.092073 3.003480 0
M  V30 3 C 3.694064 -0.949119 2.571295 0
M  V30 4 C 3.712002 0.393120 2.071665 0
M  V30 5 O 3.524146 1.312123 2.916052 0
M  V30 6 N 3.932836 0.645630 0.688491 0
M  V30 7 C 4.156835 -0.383890 -0.337643 0
M  V30 8 C 4.484095 0.423972 -1.575241 0
M  V30 9 C 3.514528 1.596284 -1.348246 0 CFG=1
M  V30 10 N 2.180428 1.011643 -1.346681 0
M  V30 11 C 1.192037 1.170692 -0.450693 0
M  V30 12 O 1.230843 1.869450 0.579408 0
M  V30 13 N 0.096346 0.466545 -0.787840 0
M  V30 14 C -1.143594 0.402904 -0.061472 0
M  V30 15 C -0.934862 -0.129386 1.213451 0
M  V30 16 C -1.994504 -0.287914 2.102176 0
M  V30 17 C -3.247294 0.107502 1.653188 0
M  V30 18 O -4.304314 -0.053567 2.547260 0
M  V30 19 C -5.029360 -1.259847 2.554935 0
M  V30 20 C -6.093689 -1.525407 3.398041 0
M  V30 21 C -6.725309 -2.748336 3.309633 0
M  V30 22 C -6.342355 -3.720656 2.416132 0
M  V30 23 C -5.294283 -3.491786 1.567869 0
M  V30 24 C -4.669885 -2.271247 1.661672 0
M  V30 25 C -3.456645 0.633649 0.394348 0
M  V30 26 C -2.386705 0.779078 -0.465345 0
M  V30 27 C 0.375684 -0.178488 -1.947806 0
M  V30 28 C -0.402363 -1.025274 -2.711205 0
M  V30 29 N -1.736101 -1.384034 -2.368562 0
M  V30 30 N 0.159825 -1.520220 -3.832016 0
M  V30 31 C 1.427190 -1.201387 -4.190966 0
M  V30 32 N 2.127768 -0.370228 -3.399795 0
M  V30 33 C 1.672073 0.176718 -2.271056 0
M  V30 34 C 3.974635 1.948387 0.058783 0
M  V30 35 H 4.544591 -3.796105 3.944167 0
M  V30 36 H 3.247457 -4.182043 2.770926 0
M  V30 37 H 2.862362 -3.448745 4.385098 0
M  V30 38 H 3.180662 -0.903533 -0.454608 0
M  V30 39 H 4.969261 -1.081858 -0.052249 0
M  V30 40 H 4.321332 -0.091512 -2.519406 0
M  V30 41 H 5.532318 0.774676 -1.470688 0
M  V30 42 H 3.643326 2.399951 -2.074690 0
M  V30 43 H 0.030848 -0.460436 1.627097 0
M  V30 44 H -1.859629 -0.699930 3.101125 0
M  V30 45 H -6.360206 -0.739661 4.080143 0
M  V30 46 H -7.557393 -2.927827 3.984296 0
M  V30 47 H -6.849052 -4.689814 2.351784 0
M  V30 48 H -4.938856 -4.219791 0.834978 0
M  V30 49 H -3.839879 -2.090794 0.989468 0
M  V30 50 H -4.425371 0.937378 0.052385 0
M  V30 51 H -2.427658 1.173970 -1.462858 0
M  V30 52 H -2.206431 -2.028438 -1.666933 0
M  V30 53 H -2.569387 -0.975617 -2.863894 0
M  V30 54 H 1.923717 -1.576494 -5.087138 0
M  V30 55 H 3.405068 2.727103 0.546791 0
M  V30 56 H 5.049215 2.198405 -0.038248 0
M  V30 END ATOM
M  V30 BEGIN BOND
M  V30 1 1 1 2
M  V30 2 3 2 3
M  V30 3 1 3 4
M  V30 4 2 4 5
M  V30 5 1 4 6
M  V30 6 1 6 7
M  V30 7 1 7 8
M  V30 8 1 8 9
M  V30 9 1 9 10
M  V30 10 1 10 11
M  V30 11 2 11 12
M  V30 12 1 11 13
M  V30 13 1 13 14
M  V30 14 2 14 15
M  V30 15 1 15 16
M  V30 16 2 16 17
M  V30 17 1 17 18
M  V30 18 1 18 19
M  V30 19 2 19 20
M  V30 20 1 20 21
M  V30 21 2 21 22
M  V30 22 1 22 23
M  V30 23 2 23 24
M  V30 24 1 17 25
M  V30 25 2 25 26
M  V30 26 1 13 27
M  V30 27 2 27 28
M  V30 28 1 28 29
M  V30 29 1 28 30
M  V30 30 2 30 31
M  V30 31 1 31 32
M  V30 32 2 32 33
M  V30 33 1 9 34
M  V30 34 1 34 6
M  V30 35 1 33 10
M  V30 36 1 26 14
M  V30 37 1 33 27
M  V30 38 1 24 19
M  V30 39 1 1 35
M  V30 40 1 1 36
M  V30 41 1 1 37
M  V30 42 1 7 38
M  V30 43 1 7 39
M  V30 44 1 8 40
M  V30 45 1 8 41
M  V30 46 1 9 42 CFG=3
M  V30 47 1 15 43
M  V30 48 1 16 44
M  V30 49 1 20 45
M  V30 50 1 21 46
M  V30 51 1 22 47
M  V30 52 1 23 48
M  V30 53 1 24 49
M  V30 54 1 25 50
M  V30 55 1 26 51
M  V30 56 1 29 52
M  V30 57 1 29 53
M  V30 58 1 31 54
M  V30 59 1 34 55
M  V30 60 1 34 56
M  V30 END BOND
M  V30 END CTAB
M  END
>  <Dataset>  (970) 
OralDrugs

>  <Ligand_Instance>  (970) 
nan

>  <PDB_ID>  (970) 
nan

>  <Standardized_SMILES>  (970) 
CC#CC(=O)N1CC[C@@H](n2c(=O)n(-c3ccc(Oc4ccccc4)cc3)c3c(N)ncnc32)C1

>  <Name>  (970) 
Tirabrutinib

>  <Pocket>  (970) 
nan

>  <ATP_Site>  (970) 
nan

>  <Peripheral>  (970) 
nan

>  <Num_H_Atoms_ProtBoundConf>  (970) 
nan

>  <Num_Resolved_Atoms>  (970) 
nan

>  <Num_Not_Resolved_Atoms>  (970) 
nan

$$$$
CHEMBL1289494
     RDKit          3D

  0  0  0  0  0  0  0  0  0  0999 V3000
M  V30 BEGIN CTAB
M  V30 COUNTS 51 54 0 0 0
M  V30 BEGIN ATOM
M  V30 1 C 2.745067 -5.722151 4.242141 0
M  V30 2 O 2.149012 -4.991534 3.179244 0
M  V30 3 C 2.639399 -3.774522 2.757343 0
M  V30 4 C 3.745250 -3.181074 3.339658 0
M  V30 5 C 4.227578 -1.962882 2.909824 0
M  V30 6 N 5.299443 -1.341806 3.432650 0
M  V30 7 C 5.711915 -0.147461 2.947712 0
M  V30 8 C 5.025230 0.457582 1.893064 0
M  V30 9 C 3.910401 -0.175243 1.340423 0
M  V30 10 O 3.366948 0.567811 0.316976 0
M  V30 11 C 2.091188 1.104309 0.287059 0
M  V30 12 C 1.911896 1.731965 -0.954028 0
M  V30 13 C 0.707924 2.370622 -1.275909 0
M  V30 14 C -0.315015 2.381816 -0.358712 0
M  V30 15 N -1.597382 2.980281 -0.518254 0
M  V30 16 C -2.528800 2.082800 -1.075716 0
M  V30 17 O -2.174036 0.908845 -1.365792 0
M  V30 18 N -3.886114 2.414921 -1.344518 0
M  V30 19 C -4.836971 1.519688 -1.906539 0
M  V30 20 C -5.600003 0.725940 -1.075027 0
M  V30 21 C -6.447021 -0.056275 -1.833145 0
M  V30 22 C -7.480365 -1.082976 -1.526645 0
M  V30 23 O -6.178698 0.278586 -3.073596 0
M  V30 24 N -5.259640 1.180333 -3.151851 0
M  V30 25 C -0.137415 1.764120 0.861619 0
M  V30 26 Cl -1.362883 1.703332 2.126600 0
M  V30 27 C 1.042722 1.133251 1.188015 0
M  V30 28 C 3.536112 -1.382797 1.868111 0
M  V30 29 C 2.431552 -1.936188 1.257763 0
M  V30 30 C 1.962881 -3.159670 1.703832 0
M  V30 31 O 0.855365 -3.769463 1.131447 0
M  V30 32 C 0.229729 -3.076530 0.068575 0
M  V30 33 H 2.935844 -5.029033 5.104559 0
M  V30 34 H 3.656665 -6.228828 3.907726 0
M  V30 35 H 2.024569 -6.482705 4.625434 0
M  V30 36 H 4.251880 -3.674431 4.151890 0
M  V30 37 H 6.575789 0.223865 3.461386 0
M  V30 38 H 5.513734 1.403705 1.655010 0
M  V30 39 H 2.611757 1.816630 -1.788415 0
M  V30 40 H 0.494847 2.867562 -2.193015 0
M  V30 41 H -1.933033 3.955605 -0.288623 0
M  V30 42 H -4.162429 3.403613 -1.093982 0
M  V30 43 H -5.624526 0.637603 0.020119 0
M  V30 44 H -7.299584 -1.530990 -0.507702 0
M  V30 45 H -8.500784 -0.637856 -1.441176 0
M  V30 46 H -7.430521 -1.943063 -2.220738 0
M  V30 47 H 1.331861 0.612426 2.089451 0
M  V30 48 H 1.908756 -1.484919 0.450477 0
M  V30 49 H -0.724920 -3.556379 -0.244724 0
M  V30 50 H 0.899630 -2.959273 -0.810099 0
M  V30 51 H -0.067101 -2.065870 0.454759 0
M  V30 END ATOM
M  V30 BEGIN BOND
M  V30 1 1 1 2
M  V30 2 1 2 3
M  V30 3 2 3 4
M  V30 4 1 4 5
M  V30 5 2 5 6
M  V30 6 1 6 7
M  V30 7 2 7 8
M  V30 8 1 8 9
M  V30 9 1 9 10
M  V30 10 1 10 11
M  V30 11 2 11 12
M  V30 12 1 12 13
M  V30 13 2 13 14
M  V30 14 1 14 15
M  V30 15 1 15 16
M  V30 16 2 16 17
M  V30 17 1 16 18
M  V30 18 1 18 19
M  V30 19 1 19 20
M  V30 20 2 20 21
M  V30 21 1 21 22
M  V30 22 1 21 23
M  V30 23 1 23 24
M  V30 24 1 14 25
M  V30 25 1 25 26
M  V30 26 2 25 27
M  V30 27 2 9 28
M  V30 28 1 28 29
M  V30 29 2 29 30
M  V30 30 1 30 31
M  V30 31 1 31 32
M  V30 32 1 30 3
M  V30 33 1 28 5
M  V30 34 1 27 11
M  V30 35 2 24 19
M  V30 36 1 1 33
M  V30 37 1 1 34
M  V30 38 1 1 35
M  V30 39 1 4 36
M  V30 40 1 7 37
M  V30 41 1 8 38
M  V30 42 1 12 39
M  V30 43 1 13 40
M  V30 44 1 15 41
M  V30 45 1 18 42
M  V30 46 1 20 43
M  V30 47 1 22 44
M  V30 48 1 22 45
M  V30 49 1 22 46
M  V30 50 1 27 47
M  V30 51 1 29 48
M  V30 52 1 32 49
M  V30 53 1 32 50
M  V30 54 1 32 51
M  V30 END BOND
M  V30 END CTAB
M  END
>  <Dataset>  (971) 
OralDrugs

>  <Ligand_Instance>  (971) 
nan

>  <PDB_ID>  (971) 
nan

>  <Standardized_SMILES>  (971) 
COc1cc2nccc(Oc3ccc(NC(=O)Nc4cc(C)on4)c(Cl)c3)c2cc1OC

>  <Name>  (971) 
Tivozanib

>  <Pocket>  (971) 
nan

>  <ATP_Site>  (971) 
nan

>  <Peripheral>  (971) 
nan

>  <Num_H_Atoms_ProtBoundConf>  (971) 
nan

>  <Num_Resolved_Atoms>  (971) 
nan

>  <Num_Not_Resolved_Atoms>  (971) 
nan

$$$$
CHEMBL1079
     RDKit          3D

  0  0  0  0  0  0  0  0  0  0999 V3000
M  V30 BEGIN CTAB
M  V30 COUNTS 24 26 0 0 0
M  V30 BEGIN ATOM
M  V30 1 Cl -1.327401 -2.301997 1.555477 0
M  V30 2 C 0.410781 -2.118990 1.499099 0
M  V30 3 C 1.161284 -2.831866 2.379979 0
M  V30 4 C 2.521651 -2.722229 2.374255 0
M  V30 5 C 3.100979 -1.888378 1.472007 0
M  V30 6 N 4.574320 -1.623423 1.298668 0
M  V30 7 S 4.776767 -0.559259 0.100005 0
M  V30 8 N 3.013161 -0.274015 -0.381117 0
M  V30 9 C 2.384202 -1.181315 0.600734 0
M  V30 10 C 1.021989 -1.283326 0.597579 0
M  V30 11 N 0.154052 -0.582505 -0.279842 0
M  V30 12 C -0.429290 0.709753 -0.035334 0
M  V30 13 N 0.070808 1.507135 0.837002 0
M  V30 14 C -0.707398 2.731301 0.879288 0
M  V30 15 C -2.051644 2.237005 0.384997 0
M  V30 16 N -1.565244 1.308726 -0.647821 0
M  V30 17 H 0.711489 -3.496068 3.099693 0
M  V30 18 H 3.189751 -3.242779 3.028041 0
M  V30 19 H -0.083256 -1.059069 -1.198497 0
M  V30 20 H -0.249009 3.430434 0.126116 0
M  V30 21 H -0.749056 3.168649 1.895184 0
M  V30 22 H -2.715932 3.006300 0.000216 0
M  V30 23 H -2.470401 1.582903 1.173084 0
M  V30 24 H -1.890465 1.074759 -1.604801 0
M  V30 END ATOM
M  V30 BEGIN BOND
M  V30 1 1 1 2
M  V30 2 1 2 3
M  V30 3 2 3 4
M  V30 4 1 4 5
M  V30 5 2 5 6
M  V30 6 1 6 7
M  V30 7 1 7 8
M  V30 8 2 8 9
M  V30 9 1 9 10
M  V30 10 1 10 11
M  V30 11 1 11 12
M  V30 12 2 12 13
M  V30 13 1 13 14
M  V30 14 1 14 15
M  V30 15 1 15 16
M  V30 16 2 10 2
M  V30 17 1 16 12
M  V30 18 1 9 5
M  V30 19 1 3 17
M  V30 20 1 4 18
M  V30 21 1 11 19
M  V30 22 1 14 20
M  V30 23 1 14 21
M  V30 24 1 15 22
M  V30 25 1 15 23
M  V30 26 1 16 24
M  V30 END BOND
M  V30 END CTAB
M  END
>  <Dataset>  (972) 
OralDrugs

>  <Ligand_Instance>  (972) 
nan

>  <PDB_ID>  (972) 
nan

>  <Standardized_SMILES>  (972) 
Clc1ccc2nsnc2c1NC1=NCCN1

>  <Name>  (972) 
Tizanidine

>  <Pocket>  (972) 
nan

>  <ATP_Site>  (972) 
nan

>  <Peripheral>  (972) 
nan

>  <Num_H_Atoms_ProtBoundConf>  (972) 
nan

>  <Num_Resolved_Atoms>  (972) 
nan

>  <Num_Not_Resolved_Atoms>  (972) 
nan

$$$$
CHEMBL1762
     RDKit          3D

  0  0  0  0  0  0  0  0  0  0999 V3000
M  V30 BEGIN CTAB
M  V30 COUNTS 30 30 0 0 0
M  V30 BEGIN ATOM
M  V30 1 C -0.081627 -2.198413 2.737398 0
M  V30 2 C 1.152791 -1.950276 1.958164 0
M  V30 3 C 2.246099 -2.791410 1.943173 0
M  V30 4 C 3.369378 -2.501157 1.193057 0
M  V30 5 C 3.436320 -1.353202 0.428777 0
M  V30 6 C 2.360175 -0.489984 0.421081 0
M  V30 7 C 2.478164 0.712398 -0.403490 0
M  V30 8 C 1.230294 -0.790860 1.181279 0
M  V30 9 N 0.125194 0.108747 1.164973 0
M  V30 10 C -0.831816 -0.183875 0.134297 0
M  V30 11 O -0.614850 -1.180191 -0.640092 0
M  V30 12 C -2.103976 0.454129 -0.261586 0
M  V30 13 C -3.200135 -0.570959 -0.244701 0
M  V30 14 N -2.474680 1.587647 0.522063 0
M  V30 15 H 0.026149 -3.203573 3.206923 0
M  V30 16 H -0.082345 -1.472120 3.589674 0
M  V30 17 H -1.011510 -2.076414 2.154012 0
M  V30 18 H 2.194854 -3.686047 2.538318 0
M  V30 19 H 4.198193 -3.197879 1.219323 0
M  V30 20 H 4.360927 -1.210193 -0.127656 0
M  V30 21 H 1.643632 1.413787 -0.249770 0
M  V30 22 H 2.690379 0.470572 -1.450314 0
M  V30 23 H 3.383384 1.259150 -0.006052 0
M  V30 24 H -0.210296 0.953755 1.702488 0
M  V30 25 H -1.998326 0.776784 -1.318484 0
M  V30 26 H -3.150321 -1.159577 0.699184 0
M  V30 27 H -2.982923 -1.285855 -1.083800 0
M  V30 28 H -4.196765 -0.146795 -0.418598 0
M  V30 29 H -3.007532 1.392320 1.390598 0
M  V30 30 H -1.745956 2.302350 0.602662 0
M  V30 END ATOM
M  V30 BEGIN BOND
M  V30 1 1 1 2
M  V30 2 2 2 3
M  V30 3 1 3 4
M  V30 4 2 4 5
M  V30 5 1 5 6
M  V30 6 1 6 7
M  V30 7 2 6 8
M  V30 8 1 8 9
M  V30 9 1 9 10
M  V30 10 2 10 11
M  V30 11 1 10 12
M  V30 12 1 12 13
M  V30 13 1 12 14
M  V30 14 1 8 2
M  V30 15 1 1 15
M  V30 16 1 1 16
M  V30 17 1 1 17
M  V30 18 1 3 18
M  V30 19 1 4 19
M  V30 20 1 5 20
M  V30 21 1 7 21
M  V30 22 1 7 22
M  V30 23 1 7 23
M  V30 24 1 9 24
M  V30 25 1 12 25
M  V30 26 1 13 26
M  V30 27 1 13 27
M  V30 28 1 13 28
M  V30 29 1 14 29
M  V30 30 1 14 30
M  V30 END BOND
M  V30 END CTAB
M  END
>  <Dataset>  (973) 
OralDrugs

>  <Ligand_Instance>  (973) 
nan

>  <PDB_ID>  (973) 
nan

>  <Standardized_SMILES>  (973) 
Cc1cccc(C)c1NC(=O)C(C)N

>  <Name>  (973) 
Tocainide

>  <Pocket>  (973) 
nan

>  <ATP_Site>  (973) 
nan

>  <Peripheral>  (973) 
nan

>  <Num_H_Atoms_ProtBoundConf>  (973) 
nan

>  <Num_Resolved_Atoms>  (973) 
nan

>  <Num_Not_Resolved_Atoms>  (973) 
nan

$$$$
CHEMBL221959
     RDKit          3D

  0  0  0  0  0  0  0  0  0  0999 V3000
M  V30 BEGIN CTAB
M  V30 COUNTS 43 45 0 0 0
M  V30 BEGIN ATOM
M  V30 1 C 0.265891 -2.459311 2.615977 0
M  V30 2 C 1.102171 -1.943442 1.496580 0 CFG=2
M  V30 3 C 2.572844 -2.078334 1.853508 0
M  V30 4 C 3.359123 -2.076970 0.559680 0
M  V30 5 N 2.740377 -1.064128 -0.279570 0
M  V30 6 C 2.915946 -1.310769 -1.644866 0
M  V30 7 O 3.589517 -2.387277 -1.783041 0
M  V30 8 C 2.452301 -0.537381 -2.832230 0
M  V30 9 C 2.920890 -1.251460 -4.030612 0
M  V30 10 N 3.289152 -1.820854 -4.964032 0
M  V30 11 C 2.068821 -0.004760 0.429606 0
M  V30 12 C 0.753670 -0.607094 0.954729 0 CFG=2
M  V30 13 N 0.076663 0.301220 1.827715 0
M  V30 14 C 0.794739 0.598857 3.062357 0
M  V30 15 C -1.170226 0.968970 1.647801 0
M  V30 16 N -1.039080 2.314302 1.800273 0
M  V30 17 C -2.092510 3.142592 1.685915 0
M  V30 18 N -3.320025 2.648200 1.413392 0
M  V30 19 C -3.504143 1.324866 1.252987 0
M  V30 20 N -4.538277 0.506631 0.980972 0
M  V30 21 C -4.124669 -0.793880 0.929608 0
M  V30 22 C -2.747990 -0.825672 1.181437 0
M  V30 23 C -2.425902 0.476281 1.369683 0
M  V30 24 H 0.916666 -2.641801 3.520617 0
M  V30 25 H -0.532688 -1.810941 2.965632 0
M  V30 26 H -0.175327 -3.484639 2.418055 0
M  V30 27 H 0.989529 -2.716462 0.671879 0
M  V30 28 H 2.672408 -3.039821 2.387837 0
M  V30 29 H 2.974859 -1.286811 2.471152 0
M  V30 30 H 4.411061 -1.755461 0.778473 0
M  V30 31 H 3.336590 -3.091180 0.128014 0
M  V30 32 H 1.340011 -0.455925 -2.861051 0
M  V30 33 H 2.881434 0.476895 -2.884791 0
M  V30 34 H 1.829871 0.842902 -0.255054 0
M  V30 35 H 2.726648 0.323919 1.249141 0
M  V30 36 H 0.169328 -0.756839 -0.005880 0
M  V30 37 H 1.634229 1.316137 2.823569 0
M  V30 38 H 0.158301 1.179381 3.772688 0
M  V30 39 H 1.138226 -0.266723 3.618371 0
M  V30 40 H -2.043885 4.211164 1.795905 0
M  V30 41 H -5.526085 0.821029 0.828806 0
M  V30 42 H -4.741928 -1.664443 0.729918 0
M  V30 43 H -2.123564 -1.700353 1.207636 0
M  V30 END ATOM
M  V30 BEGIN BOND
M  V30 1 1 1 2
M  V30 2 1 2 3
M  V30 3 1 3 4
M  V30 4 1 4 5
M  V30 5 1 5 6
M  V30 6 2 6 7
M  V30 7 1 6 8
M  V30 8 1 8 9
M  V30 9 3 9 10
M  V30 10 1 5 11
M  V30 11 1 11 12
M  V30 12 1 12 13
M  V30 13 1 13 14
M  V30 14 1 13 15
M  V30 15 2 15 16
M  V30 16 1 16 17
M  V30 17 2 17 18
M  V30 18 1 18 19
M  V30 19 1 19 20
M  V30 20 1 20 21
M  V30 21 2 21 22
M  V30 22 1 22 23
M  V30 23 1 12 2
M  V30 24 1 23 15
M  V30 25 2 23 19
M  V30 26 1 1 24
M  V30 27 1 1 25
M  V30 28 1 1 26
M  V30 29 1 2 27 CFG=3
M  V30 30 1 3 28
M  V30 31 1 3 29
M  V30 32 1 4 30
M  V30 33 1 4 31
M  V30 34 1 8 32
M  V30 35 1 8 33
M  V30 36 1 11 34
M  V30 37 1 11 35
M  V30 38 1 12 36 CFG=3
M  V30 39 1 14 37
M  V30 40 1 14 38
M  V30 41 1 14 39
M  V30 42 1 17 40
M  V30 43 1 20 41
M  V30 44 1 21 42
M  V30 45 1 22 43
M  V30 END BOND
M  V30 END CTAB
M  END
>  <Dataset>  (974) 
OralDrugs

>  <Ligand_Instance>  (974) 
nan

>  <PDB_ID>  (974) 
nan

>  <Standardized_SMILES>  (974) 
C[C@@H]1CCN(C(=O)CC#N)C[C@@H]1N(C)c1ncnc2[nH]ccc12

>  <Name>  (974) 
Tofacitinib

>  <Pocket>  (974) 
nan

>  <ATP_Site>  (974) 
nan

>  <Peripheral>  (974) 
nan

>  <Num_H_Atoms_ProtBoundConf>  (974) 
nan

>  <Num_Resolved_Atoms>  (974) 
nan

>  <Num_Not_Resolved_Atoms>  (974) 
nan

$$$$
CHEMBL2105711
     RDKit          3D

  0  0  0  0  0  0  0  0  0  0999 V3000
M  V30 BEGIN CTAB
M  V30 COUNTS 54 57 0 0 0
M  V30 BEGIN ATOM
M  V30 1 C 0.846460 -6.436808 2.976229 0
M  V30 2 C 2.249991 -5.887401 3.108848 0
M  V30 3 C 2.461480 -4.675179 2.312945 0
M  V30 4 C 2.210264 -3.421075 2.866252 0
M  V30 5 C 2.426639 -2.314665 2.071388 0
M  V30 6 C 2.876379 -2.430376 0.770840 0
M  V30 7 C 3.065741 -1.153076 0.030181 0
M  V30 8 C 1.768891 -0.821092 -0.664180 0
M  V30 9 C 1.627105 -1.330110 -1.952217 0
M  V30 10 C 0.484029 -1.093286 -2.688298 0
M  V30 11 C -0.483282 -0.346941 -2.097699 0
M  V30 12 C -0.374825 0.172128 -0.824132 0
M  V30 13 C 0.779090 -0.062470 -0.071130 0
M  V30 14 C -1.606518 0.935401 -0.487899 0 CFG=2
M  V30 15 O -2.542844 0.375537 -1.323383 0
M  V30 16 C -1.832564 0.141423 -2.502421 0
M  V30 17 O -1.358552 2.259103 -0.744881 0
M  V30 18 C -2.294383 3.156534 -0.348623 0 CFG=2
M  V30 19 C -1.577683 4.504505 -0.227118 0
M  V30 20 O -1.026180 4.892132 -1.443109 0
M  V30 21 C -3.051799 2.867051 0.889967 0 CFG=1
M  V30 22 O -4.368181 3.330328 0.823765 0
M  V30 23 C -3.120793 1.431153 1.299508 0 CFG=2
M  V30 24 O -3.355301 1.305449 2.668175 0
M  V30 25 C -1.899620 0.642245 0.961568 0 CFG=1
M  V30 26 O -2.242648 -0.719157 1.043600 0
M  V30 27 C 3.131408 -3.663386 0.203295 0
M  V30 28 C 2.912410 -4.766361 1.005345 0
M  V30 29 H 0.630087 -7.144053 3.797040 0
M  V30 30 H 0.173098 -5.541725 2.991880 0
M  V30 31 H 0.700255 -6.963158 2.025348 0
M  V30 32 H 2.511826 -5.710086 4.170204 0
M  V30 33 H 2.938842 -6.684713 2.736261 0
M  V30 34 H 1.859141 -3.386071 3.889667 0
M  V30 35 H 2.221944 -1.353120 2.531014 0
M  V30 36 H 3.897405 -1.244748 -0.686147 0
M  V30 37 H 3.300089 -0.312950 0.700104 0
M  V30 38 H 2.418745 -1.924395 -2.398851 0
M  V30 39 H 0.323698 -1.465222 -3.692109 0
M  V30 40 H 0.936194 0.310778 0.932046 0
M  V30 41 H -2.351224 -0.568592 -3.153470 0
M  V30 42 H -1.688143 1.152688 -2.978477 0
M  V30 43 H -3.011268 3.287391 -1.187918 0
M  V30 44 H -0.795993 4.374933 0.546911 0
M  V30 45 H -2.277619 5.292224 0.114143 0
M  V30 46 H -1.581763 4.551830 -2.182130 0
M  V30 47 H -2.593781 3.432394 1.733617 0
M  V30 48 H -4.988266 2.754731 1.339230 0
M  V30 49 H -3.981418 0.928128 0.805909 0
M  V30 50 H -2.591124 1.699457 3.131100 0
M  V30 51 H -1.023120 0.818260 1.595150 0
M  V30 52 H -1.441170 -1.264952 1.262207 0
M  V30 53 H 3.483227 -3.730976 -0.817407 0
M  V30 54 H 3.116581 -5.723112 0.546562 0
M  V30 END ATOM
M  V30 BEGIN BOND
M  V30 1 1 1 2
M  V30 2 1 2 3
M  V30 3 2 3 4
M  V30 4 1 4 5
M  V30 5 2 5 6
M  V30 6 1 6 7
M  V30 7 1 7 8
M  V30 8 2 8 9
M  V30 9 1 9 10
M  V30 10 2 10 11
M  V30 11 1 11 12
M  V30 12 2 12 13
M  V30 13 1 12 14
M  V30 14 1 14 15 CFG=3
M  V30 15 1 15 16
M  V30 16 1 14 17
M  V30 17 1 17 18
M  V30 18 1 18 19
M  V30 19 1 19 20
M  V30 20 1 18 21
M  V30 21 1 21 22
M  V30 22 1 21 23
M  V30 23 1 23 24
M  V30 24 1 23 25
M  V30 25 1 25 26
M  V30 26 1 6 27
M  V30 27 2 27 28
M  V30 28 1 28 3
M  V30 29 1 13 8
M  V30 30 1 25 14
M  V30 31 1 16 11
M  V30 32 1 1 29
M  V30 33 1 1 30
M  V30 34 1 1 31
M  V30 35 1 2 32
M  V30 36 1 2 33
M  V30 37 1 4 34
M  V30 38 1 5 35
M  V30 39 1 7 36
M  V30 40 1 7 37
M  V30 41 1 9 38
M  V30 42 1 10 39
M  V30 43 1 13 40
M  V30 44 1 16 41
M  V30 45 1 16 42
M  V30 46 1 18 43 CFG=3
M  V30 47 1 19 44
M  V30 48 1 19 45
M  V30 49 1 20 46
M  V30 50 1 21 47 CFG=1
M  V30 51 1 22 48
M  V30 52 1 23 49 CFG=3
M  V30 53 1 24 50
M  V30 54 1 25 51 CFG=1
M  V30 55 1 26 52
M  V30 56 1 27 53
M  V30 57 1 28 54
M  V30 END BOND
M  V30 END CTAB
M  END
>  <Dataset>  (975) 
OralDrugs

>  <Ligand_Instance>  (975) 
nan

>  <PDB_ID>  (975) 
nan

>  <Standardized_SMILES>  (975) 
CCc1ccc(Cc2ccc3c(c2)[C@]2(OC3)O[C@H](CO)[C@@H](O)[C@H](O)[C@H]2O)cc1

>  <Name>  (975) 
Tofogliflozin

>  <Pocket>  (975) 
nan

>  <ATP_Site>  (975) 
nan

>  <Peripheral>  (975) 
nan

>  <Num_H_Atoms_ProtBoundConf>  (975) 
nan

>  <Num_Resolved_Atoms>  (975) 
nan

>  <Num_Not_Resolved_Atoms>  (975) 
nan

$$$$
CHEMBL817
     RDKit          3D

  0  0  0  0  0  0  0  0  0  0999 V3000
M  V30 BEGIN CTAB
M  V30 COUNTS 42 43 0 0 0
M  V30 BEGIN ATOM
M  V30 1 C 0.925074 -4.836484 4.410291 0
M  V30 2 C 1.341535 -4.328910 3.080087 0
M  V30 3 C 0.395577 -4.104838 2.105310 0
M  V30 4 C 0.772596 -3.636507 0.875455 0
M  V30 5 C 2.101631 -3.370321 0.558819 0
M  V30 6 S 2.391842 -2.774476 -1.070909 0
M  V30 7 O 1.375919 -3.310155 -2.013712 0
M  V30 8 O 3.784198 -3.153540 -1.477098 0
M  V30 9 N 2.286442 -1.051469 -0.977144 0
M  V30 10 C 1.008972 -0.464441 -1.185159 0
M  V30 11 O -0.010671 -1.158566 -1.428219 0
M  V30 12 N 0.812326 0.942696 -1.129946 0
M  V30 13 N -0.304598 1.725013 -1.291850 0
M  V30 14 C -0.112189 3.116628 -1.184641 0
M  V30 15 C -0.829173 3.729304 -0.025859 0
M  V30 16 C -0.484899 3.039142 1.259651 0
M  V30 17 C -1.498639 1.982154 1.635054 0
M  V30 18 C -1.500758 0.821859 0.681402 0
M  V30 19 C -1.526303 1.216607 -0.756570 0
M  V30 20 C 3.052346 -3.592560 1.529912 0
M  V30 21 C 2.642021 -4.066073 2.763382 0
M  V30 22 H 1.708318 -5.499548 4.819958 0
M  V30 23 H -0.059527 -5.366964 4.329809 0
M  V30 24 H 0.814168 -3.988970 5.124627 0
M  V30 25 H -0.645987 -4.314838 2.357498 0
M  V30 26 H -0.040033 -3.493221 0.180878 0
M  V30 27 H 3.130950 -0.440078 -0.773421 0
M  V30 28 H 1.688605 1.489132 -0.926386 0
M  V30 29 H -0.506151 3.587449 -2.131520 0
M  V30 30 H 0.959292 3.387417 -1.095218 0
M  V30 31 H -1.925114 3.762411 -0.130419 0
M  V30 32 H -0.509885 4.803746 0.033636 0
M  V30 33 H 0.526271 2.636076 1.243779 0
M  V30 34 H -0.518520 3.805489 2.066024 0
M  V30 35 H -1.173521 1.583559 2.628825 0
M  V30 36 H -2.491549 2.449786 1.792287 0
M  V30 37 H -0.658834 0.161276 0.884776 0
M  V30 38 H -2.427288 0.240188 0.869304 0
M  V30 39 H -2.318483 1.958978 -0.987669 0
M  V30 40 H -1.804617 0.318312 -1.347259 0
M  V30 41 H 4.052916 -3.372400 1.234192 0
M  V30 42 H 3.440632 -4.225409 3.499755 0
M  V30 END ATOM
M  V30 BEGIN BOND
M  V30 1 1 1 2
M  V30 2 2 2 3
M  V30 3 1 3 4
M  V30 4 2 4 5
M  V30 5 1 5 6
M  V30 6 2 6 7
M  V30 7 2 6 8
M  V30 8 1 6 9
M  V30 9 1 9 10
M  V30 10 2 10 11
M  V30 11 1 10 12
M  V30 12 1 12 13
M  V30 13 1 13 14
M  V30 14 1 14 15
M  V30 15 1 15 16
M  V30 16 1 16 17
M  V30 17 1 17 18
M  V30 18 1 18 19
M  V30 19 1 5 20
M  V30 20 2 20 21
M  V30 21 1 21 2
M  V30 22 1 19 13
M  V30 23 1 1 22
M  V30 24 1 1 23
M  V30 25 1 1 24
M  V30 26 1 3 25
M  V30 27 1 4 26
M  V30 28 1 9 27
M  V30 29 1 12 28
M  V30 30 1 14 29
M  V30 31 1 14 30
M  V30 32 1 15 31
M  V30 33 1 15 32
M  V30 34 1 16 33
M  V30 35 1 16 34
M  V30 36 1 17 35
M  V30 37 1 17 36
M  V30 38 1 18 37
M  V30 39 1 18 38
M  V30 40 1 19 39
M  V30 41 1 19 40
M  V30 42 1 20 41
M  V30 43 1 21 42
M  V30 END BOND
M  V30 END CTAB
M  END
>  <Dataset>  (976) 
OralDrugs

>  <Ligand_Instance>  (976) 
nan

>  <PDB_ID>  (976) 
nan

>  <Standardized_SMILES>  (976) 
Cc1ccc(S(=O)(=O)NC(=O)NN2CCCCCC2)cc1

>  <Name>  (976) 
Tolazamide

>  <Pocket>  (976) 
nan

>  <ATP_Site>  (976) 
nan

>  <Peripheral>  (976) 
nan

>  <Num_H_Atoms_ProtBoundConf>  (976) 
nan

>  <Num_Resolved_Atoms>  (976) 
nan

>  <Num_Not_Resolved_Atoms>  (976) 
nan

$$$$
CHEMBL782
     RDKit          3D

  0  0  0  0  0  0  0  0  0  0999 V3000
M  V30 BEGIN CTAB
M  V30 COUNTS 36 36 0 0 0
M  V30 BEGIN ATOM
M  V30 1 C -2.166534 -3.239753 2.132559 0
M  V30 2 C -0.707181 -3.058642 2.571774 0
M  V30 3 C 0.117136 -3.893876 1.652150 0
M  V30 4 C 1.599803 -3.857042 1.914989 0
M  V30 5 N 2.193356 -2.561508 1.813290 0
M  V30 6 C 2.156619 -1.798068 0.610315 0
M  V30 7 O 1.580642 -2.260468 -0.430174 0
M  V30 8 N 2.732665 -0.513361 0.472306 0
M  V30 9 S 2.621817 0.322539 -1.053587 0
M  V30 10 O 2.417124 -0.713329 -2.150058 0
M  V30 11 O 3.807061 1.169248 -1.323514 0
M  V30 12 C 1.139630 1.253990 -0.977936 0
M  V30 13 C 1.316657 2.539611 -0.458257 0
M  V30 14 C 0.228973 3.399716 -0.335982 0
M  V30 15 C -1.013749 2.935982 -0.743745 0
M  V30 16 C -2.178861 3.850882 -0.615241 0
M  V30 17 C -1.201481 1.658657 -1.262284 0
M  V30 18 C -0.109429 0.821370 -1.375104 0
M  V30 19 H -2.147282 -3.316277 1.013846 0
M  V30 20 H -2.764202 -2.385784 2.460014 0
M  V30 21 H -2.589160 -4.172287 2.573304 0
M  V30 22 H -0.674341 -3.396019 3.628672 0
M  V30 23 H -0.503940 -1.974880 2.483019 0
M  V30 24 H -0.191437 -4.957023 1.816667 0
M  V30 25 H -0.139553 -3.624663 0.609375 0
M  V30 26 H 1.799969 -4.257188 2.911273 0
M  V30 27 H 2.060153 -4.505490 1.135748 0
M  V30 28 H 2.696806 -2.075112 2.604973 0
M  V30 29 H 3.219157 -0.081706 1.292142 0
M  V30 30 H 2.246151 2.949353 -0.129452 0
M  V30 31 H 0.328662 4.390157 0.057538 0
M  V30 32 H -1.831805 4.891564 -0.715118 0
M  V30 33 H -2.889036 3.579001 -1.417817 0
M  V30 34 H -2.633968 3.657203 0.376523 0
M  V30 35 H -2.166013 1.286506 -1.583415 0
M  V30 36 H -0.140741 -0.190175 -1.763811 0
M  V30 END ATOM
M  V30 BEGIN BOND
M  V30 1 1 1 2
M  V30 2 1 2 3
M  V30 3 1 3 4
M  V30 4 1 4 5
M  V30 5 1 5 6
M  V30 6 2 6 7
M  V30 7 1 6 8
M  V30 8 1 8 9
M  V30 9 2 9 10
M  V30 10 2 9 11
M  V30 11 1 9 12
M  V30 12 2 12 13
M  V30 13 1 13 14
M  V30 14 2 14 15
M  V30 15 1 15 16
M  V30 16 1 15 17
M  V30 17 2 17 18
M  V30 18 1 18 12
M  V30 19 1 1 19
M  V30 20 1 1 20
M  V30 21 1 1 21
M  V30 22 1 2 22
M  V30 23 1 2 23
M  V30 24 1 3 24
M  V30 25 1 3 25
M  V30 26 1 4 26
M  V30 27 1 4 27
M  V30 28 1 5 28
M  V30 29 1 8 29
M  V30 30 1 13 30
M  V30 31 1 14 31
M  V30 32 1 16 32
M  V30 33 1 16 33
M  V30 34 1 16 34
M  V30 35 1 17 35
M  V30 36 1 18 36
M  V30 END BOND
M  V30 END CTAB
M  END
>  <Dataset>  (977) 
OralDrugs

>  <Ligand_Instance>  (977) 
nan

>  <PDB_ID>  (977) 
nan

>  <Standardized_SMILES>  (977) 
CCCCNC(=O)NS(=O)(=O)c1ccc(C)cc1

>  <Name>  (977) 
Tolbutamide

>  <Pocket>  (977) 
nan

>  <ATP_Site>  (977) 
nan

>  <Peripheral>  (977) 
nan

>  <Num_H_Atoms_ProtBoundConf>  (977) 
nan

>  <Num_Resolved_Atoms>  (977) 
nan

>  <Num_Not_Resolved_Atoms>  (977) 
nan

$$$$
CHEMBL1020
     RDKit          3D

  0  0  0  0  0  0  0  0  0  0999 V3000
M  V30 BEGIN CTAB
M  V30 COUNTS 34 35 0 0 0
M  V30 BEGIN ATOM
M  V30 1 C -2.982212 -4.257677 3.405109 0
M  V30 2 C -2.008456 -3.612165 2.496578 0
M  V30 3 C -0.686906 -3.998553 2.492950 0
M  V30 4 C 0.237820 -3.393881 1.638982 0
M  V30 5 C -0.134713 -2.386044 0.766016 0
M  V30 6 C 0.853659 -1.804127 -0.114395 0
M  V30 7 O 1.699592 -2.719717 -0.415237 0
M  V30 8 C 1.075705 -0.496335 -0.689461 0
M  V30 9 C 1.987223 -0.413045 -1.741965 0
M  V30 10 C 2.026379 0.941937 -2.092444 0
M  V30 11 C 1.172566 1.657649 -1.284794 0
M  V30 12 C 0.891898 3.122171 -1.297409 0
M  V30 13 C 1.814806 3.851175 -0.394024 0
M  V30 14 O 2.689460 3.196847 0.254122 0
M  V30 15 O 2.531785 4.763922 0.361051 0
M  V30 16 N 0.633203 0.741546 -0.465148 0
M  V30 17 C -0.312081 1.092700 0.567725 0
M  V30 18 C -1.471881 -2.061143 0.832985 0
M  V30 19 C -2.433648 -2.613655 1.646872 0
M  V30 20 H -2.949466 -3.805325 4.432473 0
M  V30 21 H -2.715306 -5.336941 3.552445 0
M  V30 22 H -4.024923 -4.159526 3.062608 0
M  V30 23 H -0.363892 -4.790300 3.170015 0
M  V30 24 H 1.256835 -3.759818 1.701467 0
M  V30 25 H 2.627319 -1.083625 -2.317091 0
M  V30 26 H 2.607896 1.428506 -2.862754 0
M  V30 27 H 1.084227 3.485693 -2.328108 0
M  V30 28 H -0.171311 3.338003 -1.077084 0
M  V30 29 H 2.103061 5.503074 0.919487 0
M  V30 30 H -0.188329 2.166800 0.847334 0
M  V30 31 H -1.326698 1.011959 0.146649 0
M  V30 32 H -0.231858 0.432717 1.444289 0
M  V30 33 H -1.838021 -1.292777 0.170456 0
M  V30 34 H -3.455340 -2.293530 1.628542 0
M  V30 END ATOM
M  V30 BEGIN BOND
M  V30 1 1 1 2
M  V30 2 2 2 3
M  V30 3 1 3 4
M  V30 4 2 4 5
M  V30 5 1 5 6
M  V30 6 2 6 7
M  V30 7 1 6 8
M  V30 8 2 8 9
M  V30 9 1 9 10
M  V30 10 2 10 11
M  V30 11 1 11 12
M  V30 12 1 12 13
M  V30 13 2 13 14
M  V30 14 1 13 15
M  V30 15 1 11 16
M  V30 16 1 16 17
M  V30 17 1 5 18
M  V30 18 2 18 19
M  V30 19 1 19 2
M  V30 20 1 16 8
M  V30 21 1 1 20
M  V30 22 1 1 21
M  V30 23 1 1 22
M  V30 24 1 3 23
M  V30 25 1 4 24
M  V30 26 1 9 25
M  V30 27 1 10 26
M  V30 28 1 12 27
M  V30 29 1 12 28
M  V30 30 1 15 29
M  V30 31 1 17 30
M  V30 32 1 17 31
M  V30 33 1 17 32
M  V30 34 1 18 33
M  V30 35 1 19 34
M  V30 END BOND
M  V30 END CTAB
M  END
>  <Dataset>  (978) 
OralDrugs

>  <Ligand_Instance>  (978) 
nan

>  <PDB_ID>  (978) 
nan

>  <Standardized_SMILES>  (978) 
Cc1ccc(C(=O)c2ccc(CC(=O)O)n2C)cc1

>  <Name>  (978) 
Tolmetin

>  <Pocket>  (978) 
nan

>  <ATP_Site>  (978) 
nan

>  <Peripheral>  (978) 
nan

>  <Num_H_Atoms_ProtBoundConf>  (978) 
nan

>  <Num_Resolved_Atoms>  (978) 
nan

>  <Num_Not_Resolved_Atoms>  (978) 
nan

$$$$
CHEMBL18116
     RDKit          3D

  0  0  0  0  0  0  0  0  0  0999 V3000
M  V30 BEGIN CTAB
M  V30 COUNTS 28 29 0 0 0
M  V30 BEGIN ATOM
M  V30 1 C 1.844514 -2.888100 4.173084 0
M  V30 2 C 0.772787 -2.362657 3.277173 0
M  V30 3 C -0.527706 -2.803990 3.422823 0
M  V30 4 C -1.489358 -2.292574 2.573291 0
M  V30 5 C -1.189139 -1.364749 1.595936 0
M  V30 6 C 0.101429 -0.904111 1.425487 0
M  V30 7 N 0.440277 0.052085 0.425926 0
M  V30 8 C -0.526923 0.623680 -0.497655 0
M  V30 9 C 0.366197 0.796351 -1.722117 0
M  V30 10 C -0.252003 1.684841 -2.758013 0
M  V30 11 O 0.709599 1.887564 -3.747423 0
M  V30 12 O 1.519935 1.350021 -1.131192 0
M  V30 13 C 1.675972 0.665495 0.068180 0
M  V30 14 O 2.713074 0.565570 0.772012 0
M  V30 15 C 1.036649 -1.434668 2.289600 0
M  V30 16 H 2.249037 -1.972573 4.691397 0
M  V30 17 H 2.621932 -3.380593 3.568434 0
M  V30 18 H 1.391545 -3.528310 4.936366 0
M  V30 19 H -0.812085 -3.529932 4.173862 0
M  V30 20 H -2.516724 -2.630543 2.676178 0
M  V30 21 H -1.992424 -1.010168 0.969402 0
M  V30 22 H -1.391618 -0.002305 -0.696890 0
M  V30 23 H -0.804005 1.645500 -0.118050 0
M  V30 24 H 0.519543 -0.199379 -2.138506 0
M  V30 25 H -1.086501 1.147988 -3.207019 0
M  V30 26 H -0.542788 2.674339 -2.368964 0
M  V30 27 H 1.300806 1.093881 -3.784417 0
M  V30 28 H 2.073583 -1.135649 2.233707 0
M  V30 END ATOM
M  V30 BEGIN BOND
M  V30 1 1 1 2
M  V30 2 2 2 3
M  V30 3 1 3 4
M  V30 4 2 4 5
M  V30 5 1 5 6
M  V30 6 1 6 7
M  V30 7 1 7 8
M  V30 8 1 8 9
M  V30 9 1 9 10
M  V30 10 1 10 11
M  V30 11 1 9 12
M  V30 12 1 12 13
M  V30 13 2 13 14
M  V30 14 2 6 15
M  V30 15 1 15 2
M  V30 16 1 13 7
M  V30 17 1 1 16
M  V30 18 1 1 17
M  V30 19 1 1 18
M  V30 20 1 3 19
M  V30 21 1 4 20
M  V30 22 1 5 21
M  V30 23 1 8 22
M  V30 24 1 8 23
M  V30 25 1 9 24
M  V30 26 1 10 25
M  V30 27 1 10 26
M  V30 28 1 11 27
M  V30 29 1 15 28
M  V30 END BOND
M  V30 END CTAB
M  END
>  <Dataset>  (979) 
OralDrugs

>  <Ligand_Instance>  (979) 
nan

>  <PDB_ID>  (979) 
nan

>  <Standardized_SMILES>  (979) 
Cc1cccc(N2CC(CO)OC2=O)c1

>  <Name>  (979) 
Toloxatone

>  <Pocket>  (979) 
nan

>  <ATP_Site>  (979) 
nan

>  <Peripheral>  (979) 
nan

>  <Num_H_Atoms_ProtBoundConf>  (979) 
nan

>  <Num_Resolved_Atoms>  (979) 
nan

>  <Num_Not_Resolved_Atoms>  (979) 
nan

$$$$
CHEMBL1382
     RDKit          3D

  0  0  0  0  0  0  0  0  0  0999 V3000
M  V30 BEGIN CTAB
M  V30 COUNTS 55 56 0 0 0
M  V30 BEGIN ATOM
M  V30 1 C -2.815761 -3.792522 1.909933 0
M  V30 2 C -1.417528 -3.401175 1.573960 0
M  V30 3 C -0.295955 -3.858740 2.227776 0
M  V30 4 C 0.953622 -3.435256 1.839486 0
M  V30 5 C 1.100823 -2.545171 0.788389 0
M  V30 6 O 2.368853 -2.139688 0.421059 0
M  V30 7 C 0.005977 -2.031868 0.070555 0
M  V30 8 C 0.242419 -1.115690 -1.032561 0 CFG=2
M  V30 9 C 0.046708 0.340485 -0.839270 0
M  V30 10 C 0.834074 1.058725 0.166812 0
M  V30 11 N 0.737555 0.768136 1.545002 0
M  V30 12 C 1.853091 1.379477 2.302431 0
M  V30 13 C 1.915484 2.865975 2.197958 0
M  V30 14 C 3.191209 0.844980 1.941036 0
M  V30 15 C -0.420715 1.425440 2.162492 0
M  V30 16 C -1.752207 1.102023 1.602849 0
M  V30 17 C -0.466437 1.087934 3.656906 0
M  V30 18 C -0.540376 -1.516094 -2.261304 0
M  V30 19 C -1.846721 -1.123713 -2.464556 0
M  V30 20 C -2.569180 -1.483408 -3.581178 0
M  V30 21 C -1.982911 -2.267623 -4.548235 0
M  V30 22 C -0.660794 -2.712699 -4.425918 0
M  V30 23 C -0.025675 -2.300673 -3.277523 0
M  V30 24 C -1.194608 -2.520621 0.541470 0
M  V30 25 H -3.218249 -3.240070 2.759868 0
M  V30 26 H -3.448352 -3.713595 0.989955 0
M  V30 27 H -2.792812 -4.874171 2.175365 0
M  V30 28 H -0.434419 -4.547689 3.039668 0
M  V30 29 H 1.835542 -3.804626 2.366610 0
M  V30 30 H 3.167693 -2.358517 1.000703 0
M  V30 31 H 1.313736 -1.300976 -1.403965 0
M  V30 32 H 0.338708 0.809758 -1.846761 0
M  V30 33 H -1.023181 0.635863 -0.790959 0
M  V30 34 H 0.566177 2.158824 0.067033 0
M  V30 35 H 1.910027 1.076134 -0.190659 0
M  V30 36 H 1.664243 1.105182 3.365014 0
M  V30 37 H 1.838309 3.252533 1.172048 0
M  V30 38 H 1.296068 3.397761 2.948008 0
M  V30 39 H 2.972908 3.146959 2.506915 0
M  V30 40 H 3.577926 1.238659 0.958230 0
M  V30 41 H 3.357809 -0.227371 2.085684 0
M  V30 42 H 3.912259 1.322612 2.676479 0
M  V30 43 H -0.318274 2.543623 2.114738 0
M  V30 44 H -2.123987 1.860194 0.868989 0
M  V30 45 H -2.488783 1.258944 2.467413 0
M  V30 46 H -1.936751 0.063347 1.324121 0
M  V30 47 H -1.535185 0.991198 4.013197 0
M  V30 48 H -0.047950 1.913280 4.267621 0
M  V30 49 H -0.026263 0.093364 3.878124 0
M  V30 50 H -2.367886 -0.510970 -1.745206 0
M  V30 51 H -3.608163 -1.156327 -3.718318 0
M  V30 52 H -2.491913 -2.593318 -5.461417 0
M  V30 53 H -0.138362 -3.329258 -5.145960 0
M  V30 54 H 1.010501 -2.636685 -3.157488 0
M  V30 55 H -2.077244 -2.143832 0.004630 0
M  V30 END ATOM
M  V30 BEGIN BOND
M  V30 1 1 1 2
M  V30 2 2 2 3
M  V30 3 1 3 4
M  V30 4 2 4 5
M  V30 5 1 5 6
M  V30 6 1 5 7
M  V30 7 1 7 8
M  V30 8 1 8 9
M  V30 9 1 9 10
M  V30 10 1 10 11
M  V30 11 1 11 12
M  V30 12 1 12 13
M  V30 13 1 12 14
M  V30 14 1 11 15
M  V30 15 1 15 16
M  V30 16 1 15 17
M  V30 17 1 8 18
M  V30 18 2 18 19
M  V30 19 1 19 20
M  V30 20 2 20 21
M  V30 21 1 21 22
M  V30 22 2 22 23
M  V30 23 2 7 24
M  V30 24 1 24 2
M  V30 25 1 23 18
M  V30 26 1 1 25
M  V30 27 1 1 26
M  V30 28 1 1 27
M  V30 29 1 3 28
M  V30 30 1 4 29
M  V30 31 1 6 30
M  V30 32 1 8 31 CFG=3
M  V30 33 1 9 32
M  V30 34 1 9 33
M  V30 35 1 10 34
M  V30 36 1 10 35
M  V30 37 1 12 36
M  V30 38 1 13 37
M  V30 39 1 13 38
M  V30 40 1 13 39
M  V30 41 1 14 40
M  V30 42 1 14 41
M  V30 43 1 14 42
M  V30 44 1 15 43
M  V30 45 1 16 44
M  V30 46 1 16 45
M  V30 47 1 16 46
M  V30 48 1 17 47
M  V30 49 1 17 48
M  V30 50 1 17 49
M  V30 51 1 19 50
M  V30 52 1 20 51
M  V30 53 1 21 52
M  V30 54 1 22 53
M  V30 55 1 23 54
M  V30 56 1 24 55
M  V30 END BOND
M  V30 END CTAB
M  END
>  <Dataset>  (980) 
OralDrugs

>  <Ligand_Instance>  (980) 
nan

>  <PDB_ID>  (980) 
nan

>  <Standardized_SMILES>  (980) 
Cc1ccc(O)c([C@H](CCN(C(C)C)C(C)C)c2ccccc2)c1

>  <Name>  (980) 
Tolterodine

>  <Pocket>  (980) 
nan

>  <ATP_Site>  (980) 
nan

>  <Peripheral>  (980) 
nan

>  <Num_H_Atoms_ProtBoundConf>  (980) 
nan

>  <Num_Resolved_Atoms>  (980) 
nan

>  <Num_Not_Resolved_Atoms>  (980) 
nan

$$$$
CHEMBL344159
     RDKit          3D

  0  0  0  0  0  0  0  0  0  0999 V3000
M  V30 BEGIN CTAB
M  V30 COUNTS 57 60 0 0 0
M  V30 BEGIN ATOM
M  V30 1 C 4.064889 -0.419820 4.039582 0
M  V30 2 C 4.920158 -1.457888 3.385939 0
M  V30 3 C 5.813057 -2.220760 4.104352 0
M  V30 4 C 6.551092 -3.150226 3.432131 0
M  V30 5 C 6.444651 -3.365844 2.051185 0
M  V30 6 C 5.534248 -2.579961 1.351554 0
M  V30 7 C 4.785794 -1.638598 2.024128 0
M  V30 8 C 3.862946 -0.868894 1.212780 0
M  V30 9 O 2.715355 -1.281677 1.659349 0
M  V30 10 N 3.768493 0.091413 0.192931 0
M  V30 11 C 2.400870 0.352764 -0.071475 0
M  V30 12 C 1.811959 1.366870 0.650309 0
M  V30 13 C 0.481004 1.585686 0.362680 0
M  V30 14 C -0.186581 0.836813 -0.575566 0
M  V30 15 C -1.553945 0.890146 -1.016574 0
M  V30 16 O -1.284089 1.811370 -1.857164 0
M  V30 17 N -2.870923 0.475946 -0.980372 0
M  V30 18 C -3.731394 1.168103 -1.967775 0
M  V30 19 C -5.181248 1.046703 -1.593851 0
M  V30 20 C -5.731645 -0.239006 -2.153895 0
M  V30 21 C -5.420710 -1.456841 -1.391096 0
M  V30 22 O -4.944203 -2.424377 -2.291826 0
M  V30 23 C -4.443861 -1.369866 -0.309734 0
M  V30 24 C -4.700119 -2.309864 0.673825 0
M  V30 25 C -3.881572 -2.381987 1.787502 0
M  V30 26 Cl -4.235509 -3.589642 3.017398 0
M  V30 27 C -2.785856 -1.526416 1.960190 0
M  V30 28 C -2.516146 -0.584310 0.989394 0
M  V30 29 C -3.350920 -0.553196 -0.088473 0
M  V30 30 C 0.484520 -0.186771 -1.277018 0
M  V30 31 C -0.137445 -1.062846 -2.313182 0
M  V30 32 C 1.844663 -0.466116 -1.035051 0
M  V30 33 H 3.199533 -0.946033 4.528127 0
M  V30 34 H 4.597638 0.059601 4.882798 0
M  V30 35 H 3.618593 0.257944 3.310964 0
M  V30 36 H 5.882148 -2.042887 5.167517 0
M  V30 37 H 7.242667 -3.727368 4.043965 0
M  V30 38 H 7.118179 -4.156460 1.688179 0
M  V30 39 H 5.539260 -2.833586 0.295138 0
M  V30 40 H 4.724717 0.323200 -0.075275 0
M  V30 41 H 2.275284 1.973684 1.383778 0
M  V30 42 H -0.153696 2.332071 0.817441 0
M  V30 43 H -3.550757 0.684983 -2.965720 0
M  V30 44 H -3.491989 2.243148 -2.051845 0
M  V30 45 H -5.760452 1.922867 -1.922085 0
M  V30 46 H -5.280352 1.050568 -0.467682 0
M  V30 47 H -5.443323 -0.272986 -3.243518 0
M  V30 48 H -6.852680 -0.114871 -2.197733 0
M  V30 49 H -6.354820 -1.930096 -0.965959 0
M  V30 50 H -4.043438 -2.180217 -2.658383 0
M  V30 51 H -5.533805 -3.014166 0.616706 0
M  V30 52 H -2.143831 -1.592579 2.844796 0
M  V30 53 H -1.714082 0.088086 1.072085 0
M  V30 54 H 0.595214 -1.123415 -3.144483 0
M  V30 55 H -1.068886 -0.645373 -2.741851 0
M  V30 56 H -0.254961 -2.127788 -1.953918 0
M  V30 57 H 2.388320 -1.232985 -1.544127 0
M  V30 END ATOM
M  V30 BEGIN BOND
M  V30 1 1 1 2
M  V30 2 2 2 3
M  V30 3 1 3 4
M  V30 4 2 4 5
M  V30 5 1 5 6
M  V30 6 2 6 7
M  V30 7 1 7 8
M  V30 8 2 8 9
M  V30 9 1 8 10
M  V30 10 1 10 11
M  V30 11 2 11 12
M  V30 12 1 12 13
M  V30 13 2 13 14
M  V30 14 1 14 15
M  V30 15 2 15 16
M  V30 16 1 15 17
M  V30 17 1 17 18
M  V30 18 1 18 19
M  V30 19 1 19 20
M  V30 20 1 20 21
M  V30 21 1 21 22
M  V30 22 1 21 23
M  V30 23 2 23 24
M  V30 24 1 24 25
M  V30 25 1 25 26
M  V30 26 2 25 27
M  V30 27 1 27 28
M  V30 28 2 28 29
M  V30 29 1 14 30
M  V30 30 1 30 31
M  V30 31 2 30 32
M  V30 32 1 7 2
M  V30 33 1 32 11
M  V30 34 1 29 17
M  V30 35 1 29 23
M  V30 36 1 1 33
M  V30 37 1 1 34
M  V30 38 1 1 35
M  V30 39 1 3 36
M  V30 40 1 4 37
M  V30 41 1 5 38
M  V30 42 1 6 39
M  V30 43 1 10 40
M  V30 44 1 12 41
M  V30 45 1 13 42
M  V30 46 1 18 43
M  V30 47 1 18 44
M  V30 48 1 19 45
M  V30 49 1 19 46
M  V30 50 1 20 47
M  V30 51 1 20 48
M  V30 52 1 21 49
M  V30 53 1 22 50
M  V30 54 1 24 51
M  V30 55 1 27 52
M  V30 56 1 28 53
M  V30 57 1 31 54
M  V30 58 1 31 55
M  V30 59 1 31 56
M  V30 60 1 32 57
M  V30 END BOND
M  V30 END CTAB
M  END
>  <Dataset>  (981) 
OralDrugs

>  <Ligand_Instance>  (981) 
nan

>  <PDB_ID>  (981) 
nan

>  <Standardized_SMILES>  (981) 
Cc1ccccc1C(=O)Nc1ccc(C(=O)N2CCCC(O)c3cc(Cl)ccc32)c(C)c1

>  <Name>  (981) 
Tolvaptan

>  <Pocket>  (981) 
nan

>  <ATP_Site>  (981) 
nan

>  <Peripheral>  (981) 
nan

>  <Num_H_Atoms_ProtBoundConf>  (981) 
nan

>  <Num_Resolved_Atoms>  (981) 
nan

>  <Num_Not_Resolved_Atoms>  (981) 
nan

$$$$
CHEMBL220492
     RDKit          3D

  0  0  0  0  0  0  0  0  0  0999 V3000
M  V30 BEGIN CTAB
M  V30 COUNTS 43 45 0 0 0
M  V30 BEGIN ATOM
M  V30 1 C -1.981551 -3.910269 -0.317909 0
M  V30 2 C -1.803875 -3.163717 0.973181 0
M  V30 3 C -2.249097 -4.030692 2.143292 0
M  V30 4 O -0.448181 -2.915638 1.175965 0
M  V30 5 C -0.317372 -1.660860 1.711107 0 CFG=2
M  V30 6 C -1.705301 -1.120140 1.843072 0 CFG=1
M  V30 7 C -1.673880 0.331217 1.384933 0
M  V30 8 O -0.545394 0.989027 1.886740 0
M  V30 9 C 0.577629 0.627465 1.183635 0 CFG=1
M  V30 10 C 0.850121 1.526279 -0.010895 0
M  V30 11 O 1.037490 2.835350 0.351890 0
M  V30 12 S 1.340406 3.884288 -0.888746 0
M  V30 13 N 2.021954 3.126172 -2.281111 0
M  V30 14 O 0.085173 4.588710 -1.334946 0
M  V30 15 O 2.334353 4.921176 -0.428833 0
M  V30 16 O 1.747176 0.596103 1.926995 0
M  V30 17 C 2.462944 -0.532183 1.559512 0
M  V30 18 C 2.770235 -1.282175 2.838258 0
M  V30 19 C 3.771999 -0.186411 0.888738 0
M  V30 20 O 1.729774 -1.270254 0.669750 0
M  V30 21 C 0.429069 -0.794658 0.722919 0 CFG=1
M  V30 22 O -2.434932 -1.920462 0.989747 0
M  V30 23 H -1.960923 -5.010296 -0.157907 0
M  V30 24 H -1.275313 -3.617236 -1.109175 0
M  V30 25 H -3.022175 -3.679949 -0.677183 0
M  V30 26 H -3.322648 -4.257812 2.138742 0
M  V30 27 H -1.648542 -4.978027 2.048930 0
M  V30 28 H -1.889803 -3.541575 3.088195 0
M  V30 29 H 0.140897 -1.646670 2.717970 0
M  V30 30 H -2.128917 -1.225188 2.857593 0
M  V30 31 H -2.562098 0.858742 1.790522 0
M  V30 32 H -1.739272 0.403476 0.278063 0
M  V30 33 H -0.061354 1.506445 -0.671090 0
M  V30 34 H 1.680549 1.105370 -0.587105 0
M  V30 35 H 3.051772 3.050987 -2.122417 0
M  V30 36 H 1.802241 3.662694 -3.150432 0
M  V30 37 H 2.512798 -2.363456 2.744735 0
M  V30 38 H 2.281714 -0.838228 3.729801 0
M  V30 39 H 3.871237 -1.246297 3.077921 0
M  V30 40 H 3.726658 -0.356812 -0.218804 0
M  V30 41 H 4.084561 0.850527 1.098829 0
M  V30 42 H 4.549214 -0.893873 1.244588 0
M  V30 43 H -0.114370 -0.800534 -0.220279 0
M  V30 END ATOM
M  V30 BEGIN BOND
M  V30 1 1 1 2
M  V30 2 1 2 3
M  V30 3 1 2 4
M  V30 4 1 4 5
M  V30 5 1 5 6
M  V30 6 1 6 7
M  V30 7 1 7 8
M  V30 8 1 8 9
M  V30 9 1 9 10 CFG=3
M  V30 10 1 10 11
M  V30 11 1 11 12
M  V30 12 1 12 13
M  V30 13 2 12 14
M  V30 14 2 12 15
M  V30 15 1 9 16
M  V30 16 1 16 17
M  V30 17 1 17 18
M  V30 18 1 17 19
M  V30 19 1 17 20
M  V30 20 1 20 21
M  V30 21 1 6 22
M  V30 22 1 22 2
M  V30 23 1 21 5
M  V30 24 1 21 9
M  V30 25 1 1 23
M  V30 26 1 1 24
M  V30 27 1 1 25
M  V30 28 1 3 26
M  V30 29 1 3 27
M  V30 30 1 3 28
M  V30 31 1 5 29 CFG=1
M  V30 32 1 6 30 CFG=1
M  V30 33 1 7 31
M  V30 34 1 7 32
M  V30 35 1 10 33
M  V30 36 1 10 34
M  V30 37 1 13 35
M  V30 38 1 13 36
M  V30 39 1 18 37
M  V30 40 1 18 38
M  V30 41 1 18 39
M  V30 42 1 19 40
M  V30 43 1 19 41
M  V30 44 1 19 42
M  V30 45 1 21 43 CFG=3
M  V30 END BOND
M  V30 END CTAB
M  END
>  <Dataset>  (982) 
OralDrugs

>  <Ligand_Instance>  (982) 
nan

>  <PDB_ID>  (982) 
nan

>  <Standardized_SMILES>  (982) 
CC1(C)O[C@@H]2[C@@H](CO[C@@]3(COS(N)(=O)=O)OC(C)(C)O[C@@H]23)O1

>  <Name>  (982) 
Topiramate

>  <Pocket>  (982) 
nan

>  <ATP_Site>  (982) 
nan

>  <Peripheral>  (982) 
nan

>  <Num_H_Atoms_ProtBoundConf>  (982) 
nan

>  <Num_Resolved_Atoms>  (982) 
nan

>  <Num_Not_Resolved_Atoms>  (982) 
nan

$$$$
CHEMBL84
     RDKit          3D

  0  0  0  0  0  0  0  0  0  0999 V3000
M  V30 BEGIN CTAB
M  V30 COUNTS 54 58 0 0 0
M  V30 BEGIN ATOM
M  V30 1 C 6.323107 -2.237439 2.550933 0
M  V30 2 C 5.165258 -1.495601 1.889224 0
M  V30 3 C 4.348910 -0.774780 2.938239 0 CFG=1
M  V30 4 O 3.843398 -1.724859 3.857373 0
M  V30 5 C 5.146008 0.187647 3.703083 0
M  V30 6 O 5.921556 -0.327859 4.549158 0
M  V30 7 O 5.003746 1.524327 3.460280 0
M  V30 8 C 3.739995 2.080617 3.248480 0
M  V30 9 C 2.815306 1.203304 2.485413 0
M  V30 10 C 3.145125 -0.130526 2.360572 0
M  V30 11 C 2.233315 -0.877682 1.629522 0
M  V30 12 C 1.094473 -0.316078 1.079220 0
M  V30 13 N 0.845234 1.006927 1.250587 0
M  V30 14 C 1.690919 1.784157 1.948864 0
M  V30 15 O 1.475637 3.023288 2.120044 0
M  V30 16 C -0.396944 1.410776 0.604698 0
M  V30 17 C -0.869941 0.127841 -0.008675 0
M  V30 18 C -2.011194 -0.126111 -0.774803 0
M  V30 19 C -2.200854 -1.421116 -1.216323 0
M  V30 20 C -3.318506 -1.757770 -1.995609 0
M  V30 21 C -4.322303 -0.719748 -2.353454 0
M  V30 22 N -5.204929 -0.354180 -1.368140 0
M  V30 23 C -6.137068 0.643548 -1.696419 0
M  V30 24 C -5.223183 -0.807317 -0.068515 0
M  V30 25 C -3.494913 -3.069804 -2.439582 0
M  V30 26 O -4.589665 -3.414370 -3.207132 0
M  V30 27 C -2.565323 -4.060832 -2.115439 0
M  V30 28 C -1.461311 -3.746222 -1.350108 0
M  V30 29 C -1.315640 -2.440395 -0.927052 0
M  V30 30 N -0.220698 -2.152021 -0.180270 0
M  V30 31 C 0.011720 -0.899102 0.276885 0
M  V30 32 H 6.637044 -3.093679 1.918251 0
M  V30 33 H 7.143517 -1.557300 2.840375 0
M  V30 34 H 5.961961 -2.714838 3.506771 0
M  V30 35 H 5.622749 -0.699783 1.252008 0
M  V30 36 H 4.566163 -2.133103 1.232688 0
M  V30 37 H 2.997402 -2.117121 3.544452 0
M  V30 38 H 3.788761 3.050159 2.708955 0
M  V30 39 H 3.272807 2.265787 4.239404 0
M  V30 40 H 2.381439 -1.939327 1.460299 0
M  V30 41 H -0.247012 2.203795 -0.145257 0
M  V30 42 H -1.140282 1.742402 1.384008 0
M  V30 43 H -2.710297 0.663801 -1.004826 0
M  V30 44 H -3.709874 0.169970 -2.682666 0
M  V30 45 H -4.874744 -1.114993 -3.246519 0
M  V30 46 H -7.209322 0.315534 -1.537780 0
M  V30 47 H -6.051970 1.032784 -2.736502 0
M  V30 48 H -6.070315 1.562919 -1.040923 0
M  V30 49 H -4.691402 -1.760842 0.142397 0
M  V30 50 H -4.818412 -0.007719 0.622604 0
M  V30 51 H -6.256662 -0.984426 0.360903 0
M  V30 52 H -4.758532 -3.000206 -4.135007 0
M  V30 53 H -2.696855 -5.065370 -2.452068 0
M  V30 54 H -0.716440 -4.480516 -1.073926 0
M  V30 END ATOM
M  V30 BEGIN BOND
M  V30 1 1 1 2
M  V30 2 1 2 3
M  V30 3 1 3 4 CFG=1
M  V30 4 1 3 5
M  V30 5 2 5 6
M  V30 6 1 5 7
M  V30 7 1 7 8
M  V30 8 1 8 9
M  V30 9 2 9 10
M  V30 10 1 10 11
M  V30 11 2 11 12
M  V30 12 1 12 13
M  V30 13 1 13 14
M  V30 14 2 14 15
M  V30 15 1 13 16
M  V30 16 1 16 17
M  V30 17 2 17 18
M  V30 18 1 18 19
M  V30 19 2 19 20
M  V30 20 1 20 21
M  V30 21 1 21 22
M  V30 22 1 22 23
M  V30 23 1 22 24
M  V30 24 1 20 25
M  V30 25 1 25 26
M  V30 26 2 25 27
M  V30 27 1 27 28
M  V30 28 2 28 29
M  V30 29 1 29 30
M  V30 30 2 30 31
M  V30 31 1 10 3
M  V30 32 1 31 12
M  V30 33 1 14 9
M  V30 34 1 31 17
M  V30 35 1 29 19
M  V30 36 1 1 32
M  V30 37 1 1 33
M  V30 38 1 1 34
M  V30 39 1 2 35
M  V30 40 1 2 36
M  V30 41 1 4 37
M  V30 42 1 8 38
M  V30 43 1 8 39
M  V30 44 1 11 40
M  V30 45 1 16 41
M  V30 46 1 16 42
M  V30 47 1 18 43
M  V30 48 1 21 44
M  V30 49 1 21 45
M  V30 50 1 23 46
M  V30 51 1 23 47
M  V30 52 1 23 48
M  V30 53 1 24 49
M  V30 54 1 24 50
M  V30 55 1 24 51
M  V30 56 1 26 52
M  V30 57 1 27 53
M  V30 58 1 28 54
M  V30 END BOND
M  V30 END CTAB
M  END
>  <Dataset>  (983) 
OralDrugs

>  <Ligand_Instance>  (983) 
nan

>  <PDB_ID>  (983) 
nan

>  <Standardized_SMILES>  (983) 
CC[C@@]1(O)C(=O)OCc2c1cc1n(c2=O)Cc2cc3c(CN(C)C)c(O)ccc3nc2-1

>  <Name>  (983) 
Topotecan

>  <Pocket>  (983) 
nan

>  <ATP_Site>  (983) 
nan

>  <Peripheral>  (983) 
nan

>  <Num_H_Atoms_ProtBoundConf>  (983) 
nan

>  <Num_Resolved_Atoms>  (983) 
nan

>  <Num_Not_Resolved_Atoms>  (983) 
nan

$$$$
CHEMBL1655
     RDKit          3D

  0  0  0  0  0  0  0  0  0  0999 V3000
M  V30 BEGIN CTAB
M  V30 COUNTS 57 59 0 0 0
M  V30 BEGIN ATOM
M  V30 1 C 2.809367 -0.704819 5.315652 0
M  V30 2 N 2.956580 -0.390541 3.884315 0
M  V30 3 C 3.216231 1.064522 3.888771 0
M  V30 4 C 4.094920 -1.105198 3.410181 0
M  V30 5 C 4.359984 -1.051300 1.945020 0
M  V30 6 O 3.403836 -1.539939 1.100652 0
M  V30 7 C 2.141988 -1.269795 0.760600 0
M  V30 8 C 1.145555 -0.370363 1.043279 0
M  V30 9 C -0.111307 -0.366384 0.498673 0
M  V30 10 C -0.408526 -1.349047 -0.415568 0
M  V30 11 C -1.769402 -1.294542 -1.001149 0
M  V30 12 C -2.382080 -0.191502 -1.496450 0
M  V30 13 C -3.753207 -0.405834 -2.018368 0
M  V30 14 C -4.717728 0.574501 -1.383179 0
M  V30 15 Cl -6.390200 0.252345 -1.989783 0
M  V30 16 C -1.562358 1.004725 -1.475867 0
M  V30 17 C -1.771517 2.276528 -1.011770 0
M  V30 18 C -0.857879 3.293107 -1.148227 0
M  V30 19 C 0.338617 3.066305 -1.774449 0
M  V30 20 C 0.600720 1.797938 -2.261945 0
M  V30 21 C -0.326461 0.815380 -2.109849 0
M  V30 22 C -2.294724 -2.674479 -0.982218 0
M  V30 23 C -2.284556 -3.414048 0.183819 0
M  V30 24 C -2.720589 -4.713144 0.340685 0
M  V30 25 C -3.214868 -5.340149 -0.770396 0
M  V30 26 C -3.259357 -4.671310 -1.973808 0
M  V30 27 C -2.811500 -3.374821 -2.076984 0
M  V30 28 C 0.529012 -2.317173 -0.778201 0
M  V30 29 C 1.800031 -2.262839 -0.180438 0
M  V30 30 H 3.208407 -1.735213 5.518992 0
M  V30 31 H 1.739473 -0.672835 5.625550 0
M  V30 32 H 3.349257 0.014508 5.957195 0
M  V30 33 H 3.862554 1.334069 4.767510 0
M  V30 34 H 3.727087 1.379244 2.980794 0
M  V30 35 H 2.212341 1.534734 4.005218 0
M  V30 36 H 3.983787 -2.165532 3.776436 0
M  V30 37 H 4.989467 -0.738324 4.002527 0
M  V30 38 H 4.661680 -0.005485 1.624921 0
M  V30 39 H 5.335893 -1.618040 1.795128 0
M  V30 40 H 1.469214 0.352248 1.742270 0
M  V30 41 H -0.745824 0.419536 0.862266 0
M  V30 42 H -4.123337 -1.410208 -1.683840 0
M  V30 43 H -3.799908 -0.331701 -3.120091 0
M  V30 44 H -4.465717 1.629274 -1.676842 0
M  V30 45 H -4.768315 0.533011 -0.294268 0
M  V30 46 H -2.703029 2.437773 -0.505608 0
M  V30 47 H -1.160264 4.258023 -0.729005 0
M  V30 48 H 1.030499 3.886105 -1.864187 0
M  V30 49 H 1.565383 1.705265 -2.740673 0
M  V30 50 H 0.027987 -0.118792 -2.550116 0
M  V30 51 H -1.891758 -2.919442 1.066416 0
M  V30 52 H -2.658314 -5.181133 1.316003 0
M  V30 53 H -3.571619 -6.357460 -0.715043 0
M  V30 54 H -3.645548 -5.147512 -2.860467 0
M  V30 55 H -2.825304 -2.822215 -3.027928 0
M  V30 56 H 0.137253 -3.002222 -1.494083 0
M  V30 57 H 2.360090 -3.109549 -0.610982 0
M  V30 END ATOM
M  V30 BEGIN BOND
M  V30 1 1 1 2
M  V30 2 1 2 3
M  V30 3 1 2 4
M  V30 4 1 4 5
M  V30 5 1 5 6
M  V30 6 1 6 7
M  V30 7 2 7 8
M  V30 8 1 8 9
M  V30 9 2 9 10
M  V30 10 1 10 11
M  V30 11 2 11 12
M  V30 12 1 12 13
M  V30 13 1 13 14
M  V30 14 1 14 15
M  V30 15 1 12 16
M  V30 16 2 16 17
M  V30 17 1 17 18
M  V30 18 2 18 19
M  V30 19 1 19 20
M  V30 20 2 20 21
M  V30 21 1 11 22
M  V30 22 2 22 23
M  V30 23 1 23 24
M  V30 24 2 24 25
M  V30 25 1 25 26
M  V30 26 2 26 27
M  V30 27 1 10 28
M  V30 28 2 28 29
M  V30 29 1 29 7
M  V30 30 1 21 16
M  V30 31 1 27 22
M  V30 32 1 1 30
M  V30 33 1 1 31
M  V30 34 1 1 32
M  V30 35 1 3 33
M  V30 36 1 3 34
M  V30 37 1 3 35
M  V30 38 1 4 36
M  V30 39 1 4 37
M  V30 40 1 5 38
M  V30 41 1 5 39
M  V30 42 1 8 40
M  V30 43 1 9 41
M  V30 44 1 13 42
M  V30 45 1 13 43
M  V30 46 1 14 44
M  V30 47 1 14 45
M  V30 48 1 17 46
M  V30 49 1 18 47
M  V30 50 1 19 48
M  V30 51 1 20 49
M  V30 52 1 21 50
M  V30 53 1 23 51
M  V30 54 1 24 52
M  V30 55 1 25 53
M  V30 56 1 26 54
M  V30 57 1 27 55
M  V30 58 1 28 56
M  V30 59 1 29 57
M  V30 END BOND
M  V30 END CTAB
M  END
>  <Dataset>  (984) 
OralDrugs

>  <Ligand_Instance>  (984) 
nan

>  <PDB_ID>  (984) 
nan

>  <Standardized_SMILES>  (984) 
CN(C)CCOc1ccc(/C(=C(/CCCl)c2ccccc2)c2ccccc2)cc1

>  <Name>  (984) 
Toremifene

>  <Pocket>  (984) 
nan

>  <ATP_Site>  (984) 
nan

>  <Peripheral>  (984) 
nan

>  <Num_H_Atoms_ProtBoundConf>  (984) 
nan

>  <Num_Resolved_Atoms>  (984) 
nan

>  <Num_Not_Resolved_Atoms>  (984) 
nan

$$$$
CHEMBL1148
     RDKit          3D

  0  0  0  0  0  0  0  0  0  0999 V3000
M  V30 BEGIN CTAB
M  V30 COUNTS 44 45 0 0 0
M  V30 BEGIN ATOM
M  V30 1 C 1.147890 -3.462249 1.797732 0
M  V30 2 C 1.999529 -2.697649 0.870256 0
M  V30 3 C 3.362248 -2.715820 1.035411 0
M  V30 4 C 4.142030 -1.995373 0.159090 0
M  V30 5 C 3.686396 -1.239200 -0.892537 0
M  V30 6 C 2.319610 -1.229999 -1.046113 0
M  V30 7 N 1.589156 -0.571316 -2.051521 0
M  V30 8 C 0.373205 -0.002427 -2.415950 0
M  V30 9 C -0.365978 -0.565777 -3.445941 0
M  V30 10 C -1.564330 -0.034704 -3.870911 0
M  V30 11 N -1.969244 1.053390 -3.231522 0
M  V30 12 C -1.270390 1.609966 -2.237815 0
M  V30 13 C -0.048910 1.120079 -1.760919 0
M  V30 14 S 0.686289 2.013562 -0.488668 0
M  V30 15 O -0.050903 3.269535 -0.157527 0
M  V30 16 O 2.085625 2.410001 -0.968658 0
M  V30 17 N 0.846217 1.057425 0.917472 0
M  V30 18 C -0.289713 1.081178 1.778531 0
M  V30 19 O -1.315010 1.758365 1.504461 0
M  V30 20 N -0.416276 0.373124 3.013823 0
M  V30 21 C -1.586774 0.436956 3.837784 0
M  V30 22 C -1.322822 0.941459 5.224135 0
M  V30 23 C -2.170441 -0.950739 3.921263 0
M  V30 24 C 1.497095 -1.951074 -0.173419 0
M  V30 25 H 0.626215 -2.750591 2.487393 0
M  V30 26 H 0.364914 -4.018939 1.209313 0
M  V30 27 H 1.750247 -4.158160 2.386399 0
M  V30 28 H 3.810101 -3.278577 1.829309 0
M  V30 29 H 5.236956 -2.000656 0.279621 0
M  V30 30 H 4.263451 -0.666888 -1.593129 0
M  V30 31 H 2.209524 -0.441611 -2.900937 0
M  V30 32 H 0.041077 -1.465377 -3.921433 0
M  V30 33 H -2.048267 -0.560022 -4.679993 0
M  V30 34 H -1.732972 2.503739 -1.808346 0
M  V30 35 H 1.579777 0.446458 1.334993 0
M  V30 36 H 0.417612 -0.219602 3.304154 0
M  V30 37 H -2.327994 1.102503 3.356324 0
M  V30 38 H -2.024291 0.424197 5.913311 0
M  V30 39 H -0.303455 0.586868 5.533265 0
M  V30 40 H -1.472449 2.009322 5.368775 0
M  V30 41 H -2.509032 -1.215270 2.899578 0
M  V30 42 H -1.288006 -1.625330 4.123530 0
M  V30 43 H -2.962590 -1.066365 4.678325 0
M  V30 44 H 0.402573 -1.985229 -0.241324 0
M  V30 END ATOM
M  V30 BEGIN BOND
M  V30 1 1 1 2
M  V30 2 2 2 3
M  V30 3 1 3 4
M  V30 4 2 4 5
M  V30 5 1 5 6
M  V30 6 1 6 7
M  V30 7 1 7 8
M  V30 8 2 8 9
M  V30 9 1 9 10
M  V30 10 2 10 11
M  V30 11 1 11 12
M  V30 12 2 12 13
M  V30 13 1 13 14
M  V30 14 2 14 15
M  V30 15 2 14 16
M  V30 16 1 14 17
M  V30 17 1 17 18
M  V30 18 2 18 19
M  V30 19 1 18 20
M  V30 20 1 20 21
M  V30 21 1 21 22
M  V30 22 1 21 23
M  V30 23 2 6 24
M  V30 24 1 24 2
M  V30 25 1 13 8
M  V30 26 1 1 25
M  V30 27 1 1 26
M  V30 28 1 1 27
M  V30 29 1 3 28
M  V30 30 1 4 29
M  V30 31 1 5 30
M  V30 32 1 7 31
M  V30 33 1 9 32
M  V30 34 1 10 33
M  V30 35 1 12 34
M  V30 36 1 17 35
M  V30 37 1 20 36
M  V30 38 1 21 37
M  V30 39 1 22 38
M  V30 40 1 22 39
M  V30 41 1 22 40
M  V30 42 1 23 41
M  V30 43 1 23 42
M  V30 44 1 23 43
M  V30 45 1 24 44
M  V30 END BOND
M  V30 END CTAB
M  END
>  <Dataset>  (985) 
OralDrugs

>  <Ligand_Instance>  (985) 
nan

>  <PDB_ID>  (985) 
nan

>  <Standardized_SMILES>  (985) 
Cc1cccc(Nc2ccncc2S(=O)(=O)NC(=O)NC(C)C)c1

>  <Name>  (985) 
Torsemide

>  <Pocket>  (985) 
nan

>  <ATP_Site>  (985) 
nan

>  <Peripheral>  (985) 
nan

>  <Num_H_Atoms_ProtBoundConf>  (985) 
nan

>  <Num_Resolved_Atoms>  (985) 
nan

>  <Num_Not_Resolved_Atoms>  (985) 
nan

$$$$
CHEMBL1237044
     RDKit          3D

  0  0  0  0  0  0  0  0  0  0999 V3000
M  V30 BEGIN CTAB
M  V30 COUNTS 44 45 0 0 0
M  V30 BEGIN ATOM
M  V30 1 C -2.102057 -4.482567 1.483879 0
M  V30 2 O -0.713784 -4.707846 1.479231 0
M  V30 3 C 0.184253 -3.783981 0.970045 0
M  V30 4 C 1.539228 -4.049913 0.987816 0
M  V30 5 C 2.387867 -3.076579 0.459269 0
M  V30 6 C 1.880866 -1.900234 -0.057128 0
M  V30 7 C 0.505122 -1.644858 -0.067998 0
M  V30 8 C 0.207906 -0.325870 -0.669047 0
M  V30 9 O 0.662651 -0.368756 -1.995672 0
M  V30 10 C -1.278967 -0.109382 -0.633354 0
M  V30 11 C -1.672952 1.283707 -1.061505 0
M  V30 12 C -0.889632 2.343707 -0.319758 0
M  V30 13 C 0.567819 2.090882 -0.480239 0
M  V30 14 C 0.960799 0.761773 0.067886 0
M  V30 15 C 0.806127 0.652813 1.554657 0
M  V30 16 N 1.490822 1.651356 2.314893 0
M  V30 17 C 2.930443 1.499958 2.226879 0
M  V30 18 C 1.157072 1.387923 3.723479 0
M  V30 19 C -0.324045 -2.611127 0.455576 0
M  V30 20 H -2.464625 -4.253622 0.448701 0
M  V30 21 H -2.353818 -3.570666 2.099656 0
M  V30 22 H -2.648243 -5.364919 1.862363 0
M  V30 23 H 1.897413 -4.985141 1.401351 0
M  V30 24 H 3.426542 -3.364349 0.511949 0
M  V30 25 H 2.715551 -1.277922 -0.419699 0
M  V30 26 H 0.035618 0.092588 -2.609727 0
M  V30 27 H -1.750612 -0.823925 -1.334879 0
M  V30 28 H -1.663975 -0.342986 0.378136 0
M  V30 29 H -2.737712 1.418078 -0.777955 0
M  V30 30 H -1.620218 1.403659 -2.159716 0
M  V30 31 H -1.143659 3.321635 -0.812151 0
M  V30 32 H -1.231481 2.383513 0.724955 0
M  V30 33 H 0.766319 2.041207 -1.586799 0
M  V30 34 H 1.194200 2.919719 -0.112862 0
M  V30 35 H 2.036174 0.620418 -0.170440 0
M  V30 36 H 1.179869 -0.334555 1.922925 0
M  V30 37 H -0.290680 0.713684 1.794978 0
M  V30 38 H 3.392157 2.416053 2.698822 0
M  V30 39 H 3.280374 1.509796 1.174234 0
M  V30 40 H 3.302626 0.582109 2.747544 0
M  V30 41 H 2.040998 1.459124 4.381117 0
M  V30 42 H 0.731682 0.383187 3.864928 0
M  V30 43 H 0.370440 2.106145 4.004951 0
M  V30 44 H -1.366598 -2.334653 0.406293 0
M  V30 END ATOM
M  V30 BEGIN BOND
M  V30 1 1 1 2
M  V30 2 1 2 3
M  V30 3 2 3 4
M  V30 4 1 4 5
M  V30 5 2 5 6
M  V30 6 1 6 7
M  V30 7 1 7 8
M  V30 8 1 8 9
M  V30 9 1 8 10
M  V30 10 1 10 11
M  V30 11 1 11 12
M  V30 12 1 12 13
M  V30 13 1 13 14
M  V30 14 1 14 15
M  V30 15 1 15 16
M  V30 16 1 16 17
M  V30 17 1 16 18
M  V30 18 2 7 19
M  V30 19 1 19 3
M  V30 20 1 14 8
M  V30 21 1 1 20
M  V30 22 1 1 21
M  V30 23 1 1 22
M  V30 24 1 4 23
M  V30 25 1 5 24
M  V30 26 1 6 25
M  V30 27 1 9 26
M  V30 28 1 10 27
M  V30 29 1 10 28
M  V30 30 1 11 29
M  V30 31 1 11 30
M  V30 32 1 12 31
M  V30 33 1 12 32
M  V30 34 1 13 33
M  V30 35 1 13 34
M  V30 36 1 14 35
M  V30 37 1 15 36
M  V30 38 1 15 37
M  V30 39 1 17 38
M  V30 40 1 17 39
M  V30 41 1 17 40
M  V30 42 1 18 41
M  V30 43 1 18 42
M  V30 44 1 18 43
M  V30 45 1 19 44
M  V30 END BOND
M  V30 END CTAB
M  END
>  <Dataset>  (986) 
OralDrugs

>  <Ligand_Instance>  (986) 
nan

>  <PDB_ID>  (986) 
nan

>  <Standardized_SMILES>  (986) 
COc1cccc(C2(O)CCCCC2CN(C)C)c1

>  <Name>  (986) 
Tramadol

>  <Pocket>  (986) 
nan

>  <ATP_Site>  (986) 
nan

>  <Peripheral>  (986) 
nan

>  <Num_H_Atoms_ProtBoundConf>  (986) 
nan

>  <Num_Resolved_Atoms>  (986) 
nan

>  <Num_Not_Resolved_Atoms>  (986) 
nan

$$$$
CHEMBL2105741
     RDKit          3D

  0  0  0  0  0  0  0  0  0  0999 V3000
M  V30 BEGIN CTAB
M  V30 COUNTS 60 64 0 0 0
M  V30 BEGIN ATOM
M  V30 1 C 4.098356 -1.109195 5.894439 0
M  V30 2 C 3.559740 -0.638123 4.605478 0
M  V30 3 O 2.446270 -1.137188 4.318525 0
M  V30 4 N 4.157344 0.277475 3.713839 0
M  V30 5 C 3.683158 0.759562 2.470294 0
M  V30 6 C 4.528050 1.655147 1.854047 0
M  V30 7 C 4.196789 2.205298 0.640972 0
M  V30 8 C 3.029023 1.894011 -0.002734 0
M  V30 9 C 2.129375 0.985229 0.581070 0
M  V30 10 N 0.845473 0.551504 0.149111 0
M  V30 11 C -0.077743 1.215405 0.915148 0
M  V30 12 O 0.142246 2.065420 1.844840 0
M  V30 13 N -1.427758 1.042732 0.773859 0
M  V30 14 C -2.444888 1.692269 1.526138 0
M  V30 15 C -3.622133 0.920005 2.043303 0
M  V30 16 C -3.771731 2.019557 1.042738 0
M  V30 17 C -1.833064 0.159018 -0.186303 0
M  V30 18 O -3.024360 -0.133207 -0.465365 0
M  V30 19 C -0.919795 -0.518626 -0.967165 0
M  V30 20 C -1.279119 -1.418397 -1.948747 0
M  V30 21 N -2.660697 -1.671686 -2.177867 0
M  V30 22 C -3.264224 -2.733001 -1.430717 0
M  V30 23 C -2.514752 -3.467241 -0.529833 0
M  V30 24 C -3.031362 -4.505031 0.224926 0
M  V30 25 C -4.368035 -4.792843 0.041552 0
M  V30 26 I -5.205309 -6.361628 1.163923 0
M  V30 27 C -5.177301 -4.087857 -0.852937 0
M  V30 28 C -4.596162 -3.063942 -1.574101 0
M  V30 29 F -5.354605 -2.361364 -2.449714 0
M  V30 30 N -0.352416 -2.054244 -2.685844 0
M  V30 31 C -0.780580 -2.979614 -3.693312 0
M  V30 32 C 0.927786 -1.783017 -2.433008 0
M  V30 33 O 1.742327 -2.430804 -3.179219 0
M  V30 34 C 1.461473 -0.897532 -1.473569 0
M  V30 35 C 2.913840 -0.718994 -1.333788 0
M  V30 36 C 0.425457 -0.308961 -0.784821 0
M  V30 37 C 2.533755 0.457557 1.829614 0
M  V30 38 H 4.172052 -2.213253 5.971458 0
M  V30 39 H 5.110216 -0.685190 6.091430 0
M  V30 40 H 3.475459 -0.800349 6.775452 0
M  V30 41 H 5.078052 0.582935 4.124193 0
M  V30 42 H 5.492990 1.984956 2.268781 0
M  V30 43 H 4.845417 2.907421 0.144367 0
M  V30 44 H 2.657703 2.253162 -0.946764 0
M  V30 45 H -2.031994 2.406163 2.301644 0
M  V30 46 H -3.980821 1.089910 3.099065 0
M  V30 47 H -3.643108 -0.143461 1.778379 0
M  V30 48 H -4.298733 2.928779 1.461933 0
M  V30 49 H -4.162219 1.838945 0.019853 0
M  V30 50 H -3.272102 -1.146562 -2.847141 0
M  V30 51 H -1.460637 -3.260082 -0.367576 0
M  V30 52 H -2.426729 -5.073848 0.930730 0
M  V30 53 H -6.221266 -4.347592 -0.964994 0
M  V30 54 H 0.040772 -2.971025 -4.471917 0
M  V30 55 H -0.806788 -4.041574 -3.376805 0
M  V30 56 H -1.667518 -2.645029 -4.258842 0
M  V30 57 H 3.362022 0.043404 -2.007233 0
M  V30 58 H 3.331011 -1.654626 -1.873550 0
M  V30 59 H 3.368112 -0.883546 -0.369438 0
M  V30 60 H 1.880356 -0.242198 2.317072 0
M  V30 END ATOM
M  V30 BEGIN BOND
M  V30 1 1 1 2
M  V30 2 2 2 3
M  V30 3 1 2 4
M  V30 4 1 4 5
M  V30 5 2 5 6
M  V30 6 1 6 7
M  V30 7 2 7 8
M  V30 8 1 8 9
M  V30 9 1 9 10
M  V30 10 1 10 11
M  V30 11 2 11 12
M  V30 12 1 11 13
M  V30 13 1 13 14
M  V30 14 1 14 15
M  V30 15 1 15 16
M  V30 16 1 13 17
M  V30 17 2 17 18
M  V30 18 1 17 19
M  V30 19 2 19 20
M  V30 20 1 20 21
M  V30 21 1 21 22
M  V30 22 2 22 23
M  V30 23 1 23 24
M  V30 24 2 24 25
M  V30 25 1 25 26
M  V30 26 1 25 27
M  V30 27 2 27 28
M  V30 28 1 28 29
M  V30 29 1 20 30
M  V30 30 1 30 31
M  V30 31 1 30 32
M  V30 32 2 32 33
M  V30 33 1 32 34
M  V30 34 1 34 35
M  V30 35 2 34 36
M  V30 36 2 9 37
M  V30 37 1 37 5
M  V30 38 1 36 10
M  V30 39 1 16 14
M  V30 40 1 36 19
M  V30 41 1 28 22
M  V30 42 1 1 38
M  V30 43 1 1 39
M  V30 44 1 1 40
M  V30 45 1 4 41
M  V30 46 1 6 42
M  V30 47 1 7 43
M  V30 48 1 8 44
M  V30 49 1 14 45
M  V30 50 1 15 46
M  V30 51 1 15 47
M  V30 52 1 16 48
M  V30 53 1 16 49
M  V30 54 1 21 50
M  V30 55 1 23 51
M  V30 56 1 24 52
M  V30 57 1 27 53
M  V30 58 1 31 54
M  V30 59 1 31 55
M  V30 60 1 31 56
M  V30 61 1 35 57
M  V30 62 1 35 58
M  V30 63 1 35 59
M  V30 64 1 37 60
M  V30 END BOND
M  V30 END CTAB
M  END
>  <Dataset>  (987) 
OralDrugs

>  <Ligand_Instance>  (987) 
nan

>  <PDB_ID>  (987) 
nan

>  <Standardized_SMILES>  (987) 
CC(=O)Nc1cccc(-n2c(=O)n(C3CC3)c(=O)c3c(Nc4ccc(I)cc4F)n(C)c(=O)c(C)c32)c1

>  <Name>  (987) 
Trametinib Dimethyl Sulfoxide

>  <Pocket>  (987) 
nan

>  <ATP_Site>  (987) 
nan

>  <Peripheral>  (987) 
nan

>  <Num_H_Atoms_ProtBoundConf>  (987) 
nan

>  <Num_Resolved_Atoms>  (987) 
nan

>  <Num_Not_Resolved_Atoms>  (987) 
nan

$$$$
CHEMBL877
     RDKit          3D

  0  0  0  0  0  0  0  0  0  0999 V3000
M  V30 BEGIN CTAB
M  V30 COUNTS 26 26 0 0 0
M  V30 BEGIN ATOM
M  V30 1 N 0.894540 1.462630 1.979311 0
M  V30 2 C 1.868642 0.433570 2.180246 0
M  V30 3 C 1.515022 -0.854295 1.422420 0 CFG=1
M  V30 4 C 0.213111 -1.421077 1.843245 0
M  V30 5 C -1.004186 -0.915868 1.151180 0
M  V30 6 C -0.770363 -0.430880 -0.247787 0 CFG=2
M  V30 7 C -1.991422 -0.631812 -1.080216 0
M  V30 8 O -2.120340 -1.317150 -2.126476 0
M  V30 9 O -3.087204 0.072062 -0.551282 0
M  V30 10 C 0.431136 -1.147512 -0.797647 0
M  V30 11 C 1.630027 -0.608618 -0.060355 0
M  V30 12 H 0.127589 1.506968 2.654142 0
M  V30 13 H 1.296323 2.366366 1.664710 0
M  V30 14 H 2.860502 0.773099 1.883276 0
M  V30 15 H 1.944081 0.170266 3.263253 0
M  V30 16 H 2.319139 -1.574848 1.688503 0
M  V30 17 H 0.280556 -2.545472 1.787313 0
M  V30 18 H 0.080065 -1.226705 2.939037 0
M  V30 19 H -1.709265 -1.792609 1.040214 0
M  V30 20 H -1.596528 -0.170221 1.712997 0
M  V30 21 H -0.562272 0.660185 -0.299247 0
M  V30 22 H -3.957122 0.178926 -1.084889 0
M  V30 23 H 0.341361 -2.246803 -0.608049 0
M  V30 24 H 0.567526 -0.946013 -1.881413 0
M  V30 25 H 1.666285 0.496194 -0.246099 0
M  V30 26 H 2.538754 -1.027314 -0.508240 0
M  V30 END ATOM
M  V30 BEGIN BOND
M  V30 1 1 1 2
M  V30 2 1 2 3
M  V30 3 1 3 4
M  V30 4 1 4 5
M  V30 5 1 5 6
M  V30 6 1 6 7
M  V30 7 2 7 8
M  V30 8 1 7 9
M  V30 9 1 6 10
M  V30 10 1 10 11
M  V30 11 1 11 3
M  V30 12 1 1 12
M  V30 13 1 1 13
M  V30 14 1 2 14
M  V30 15 1 2 15
M  V30 16 1 3 16 CFG=1
M  V30 17 1 4 17
M  V30 18 1 4 18
M  V30 19 1 5 19
M  V30 20 1 5 20
M  V30 21 1 6 21 CFG=1
M  V30 22 1 9 22
M  V30 23 1 10 23
M  V30 24 1 10 24
M  V30 25 1 11 25
M  V30 26 1 11 26
M  V30 END BOND
M  V30 END CTAB
M  END
>  <Dataset>  (988) 
OralDrugs

>  <Ligand_Instance>  (988) 
nan

>  <PDB_ID>  (988) 
nan

>  <Standardized_SMILES>  (988) 
NC[C@H]1CC[C@H](C(=O)O)CC1

>  <Name>  (988) 
Tranexamic Acid

>  <Pocket>  (988) 
nan

>  <ATP_Site>  (988) 
nan

>  <Peripheral>  (988) 
nan

>  <Num_H_Atoms_ProtBoundConf>  (988) 
nan

>  <Num_Resolved_Atoms>  (988) 
nan

>  <Num_Not_Resolved_Atoms>  (988) 
nan

$$$$
CHEMBL3989843
     RDKit          3D

  0  0  0  0  0  0  0  0  0  0999 V3000
M  V30 BEGIN CTAB
M  V30 COUNTS 21 22 0 0 0
M  V30 BEGIN ATOM
M  V30 1 N 0.194315 2.972053 2.061479 0
M  V30 2 C 0.462393 1.572087 2.158316 0 CFG=2
M  V30 3 C 1.818173 1.049111 2.462213 0
M  V30 4 C 1.390141 1.042831 1.064404 0 CFG=1
M  V30 5 C 0.847877 -0.157956 0.389706 0
M  V30 6 C 0.233889 -1.157477 1.109382 0
M  V30 7 C -0.293151 -2.306116 0.529274 0
M  V30 8 C -0.198725 -2.457884 -0.840453 0
M  V30 9 C 0.416852 -1.463916 -1.595490 0
M  V30 10 C 0.927882 -0.338143 -0.983381 0
M  V30 11 H 0.219238 3.244114 1.052063 0
M  V30 12 H -0.773486 3.178565 2.374713 0
M  V30 13 H -0.362742 0.933742 2.509138 0
M  V30 14 H 2.635839 1.777142 2.741987 0
M  V30 15 H 1.921323 0.120133 3.060451 0
M  V30 16 H 1.854996 1.765590 0.378614 0
M  V30 17 H 0.177857 -1.006240 2.174465 0
M  V30 18 H -0.764911 -3.062015 1.132713 0
M  V30 19 H -0.585658 -3.325606 -1.367586 0
M  V30 20 H 0.518350 -1.533593 -2.682809 0
M  V30 21 H 1.407387 0.438742 -1.560644 0
M  V30 END ATOM
M  V30 BEGIN BOND
M  V30 1 1 1 2
M  V30 2 1 2 3
M  V30 3 1 3 4
M  V30 4 1 4 5
M  V30 5 2 5 6
M  V30 6 1 6 7
M  V30 7 2 7 8
M  V30 8 1 8 9
M  V30 9 2 9 10
M  V30 10 1 4 2
M  V30 11 1 10 5
M  V30 12 1 1 11
M  V30 13 1 1 12
M  V30 14 1 2 13 CFG=1
M  V30 15 1 3 14
M  V30 16 1 3 15
M  V30 17 1 4 16 CFG=3
M  V30 18 1 6 17
M  V30 19 1 7 18
M  V30 20 1 8 19
M  V30 21 1 9 20
M  V30 22 1 10 21
M  V30 END BOND
M  V30 END CTAB
M  END
>  <Dataset>  (989) 
OralDrugs

>  <Ligand_Instance>  (989) 
nan

>  <PDB_ID>  (989) 
nan

>  <Standardized_SMILES>  (989) 
N[C@@H]1C[C@H]1c1ccccc1

>  <Name>  (989) 
Tranylcypromine

>  <Pocket>  (989) 
nan

>  <ATP_Site>  (989) 
nan

>  <Peripheral>  (989) 
nan

>  <Num_H_Atoms_ProtBoundConf>  (989) 
nan

>  <Num_Resolved_Atoms>  (989) 
nan

>  <Num_Not_Resolved_Atoms>  (989) 
nan

$$$$
CHEMBL621
     RDKit          3D

  0  0  0  0  0  0  0  0  0  0999 V3000
M  V30 BEGIN CTAB
M  V30 COUNTS 48 51 0 0 0
M  V30 BEGIN ATOM
M  V30 1 O -2.249083 -3.832332 -0.756545 0
M  V30 2 C -2.254321 -3.648952 0.493803 0
M  V30 3 N -1.150095 -3.751161 1.264445 0
M  V30 4 C 0.221830 -4.053913 0.962502 0
M  V30 5 C 0.987014 -2.789899 0.694249 0
M  V30 6 C 0.364029 -2.066825 -0.476782 0
M  V30 7 N 1.115226 -0.890306 -0.706666 0
M  V30 8 C 0.732064 -0.029539 -1.760375 0
M  V30 9 C 0.785239 1.394967 -1.188672 0
M  V30 10 N 2.005036 1.570870 -0.423837 0
M  V30 11 C 2.117625 2.656283 0.487100 0
M  V30 12 C 1.017299 3.478940 0.565526 0
M  V30 13 C 1.068111 4.565838 1.445772 0
M  V30 14 C 2.225658 4.768019 2.202137 0
M  V30 15 C 3.301770 3.925388 2.095516 0
M  V30 16 Cl 4.750783 4.170899 3.036425 0
M  V30 17 C 3.257330 2.858274 1.234101 0
M  V30 18 C 2.985058 0.546008 -0.726212 0
M  V30 19 C 2.431240 -0.800953 -0.237896 0
M  V30 20 N -1.544441 -3.493221 2.516027 0
M  V30 21 C -2.885142 -3.236307 2.494085 0
M  V30 22 C -3.768095 -2.918774 3.501800 0
M  V30 23 C -5.112117 -2.693858 3.254362 0
M  V30 24 C -5.527181 -2.805742 1.927995 0
M  V30 25 C -4.632702 -3.124417 0.927863 0
M  V30 26 N -3.336478 -3.332510 1.227293 0
M  V30 27 H 0.236525 -4.672744 0.037213 0
M  V30 28 H 0.705686 -4.676856 1.740127 0
M  V30 29 H 0.844606 -2.126693 1.585239 0
M  V30 30 H 2.067465 -2.972063 0.549958 0
M  V30 31 H 0.217004 -2.751539 -1.306909 0
M  V30 32 H -0.648043 -1.730352 -0.109525 0
M  V30 33 H -0.289241 -0.291018 -2.070314 0
M  V30 34 H 1.376606 -0.051327 -2.658207 0
M  V30 35 H -0.068845 1.430381 -0.466740 0
M  V30 36 H 0.661862 2.151745 -1.990524 0
M  V30 37 H 0.094107 3.401826 0.028340 0
M  V30 38 H 0.283218 5.278449 1.600562 0
M  V30 39 H 2.293857 5.595627 2.887655 0
M  V30 40 H 4.112194 2.201180 1.159113 0
M  V30 41 H 3.936779 0.665610 -0.167738 0
M  V30 42 H 3.146718 0.521914 -1.821428 0
M  V30 43 H 2.524294 -0.907118 0.839556 0
M  V30 44 H 3.088006 -1.588478 -0.694114 0
M  V30 45 H -3.411304 -2.839540 4.525260 0
M  V30 46 H -5.766851 -2.446547 4.083346 0
M  V30 47 H -6.582351 -2.623193 1.775083 0
M  V30 48 H -4.983925 -3.203255 -0.085243 0
M  V30 END ATOM
M  V30 BEGIN BOND
M  V30 1 2 1 2
M  V30 2 1 2 3
M  V30 3 1 3 4
M  V30 4 1 4 5
M  V30 5 1 5 6
M  V30 6 1 6 7
M  V30 7 1 7 8
M  V30 8 1 8 9
M  V30 9 1 9 10
M  V30 10 1 10 11
M  V30 11 2 11 12
M  V30 12 1 12 13
M  V30 13 2 13 14
M  V30 14 1 14 15
M  V30 15 1 15 16
M  V30 16 2 15 17
M  V30 17 1 10 18
M  V30 18 1 18 19
M  V30 19 1 3 20
M  V30 20 2 20 21
M  V30 21 1 21 22
M  V30 22 2 22 23
M  V30 23 1 23 24
M  V30 24 2 24 25
M  V30 25 1 25 26
M  V30 26 1 26 2
M  V30 27 1 19 7
M  V30 28 1 26 21
M  V30 29 1 17 11
M  V30 30 1 4 27
M  V30 31 1 4 28
M  V30 32 1 5 29
M  V30 33 1 5 30
M  V30 34 1 6 31
M  V30 35 1 6 32
M  V30 36 1 8 33
M  V30 37 1 8 34
M  V30 38 1 9 35
M  V30 39 1 9 36
M  V30 40 1 12 37
M  V30 41 1 13 38
M  V30 42 1 14 39
M  V30 43 1 17 40
M  V30 44 1 18 41
M  V30 45 1 18 42
M  V30 46 1 19 43
M  V30 47 1 19 44
M  V30 48 1 22 45
M  V30 49 1 23 46
M  V30 50 1 24 47
M  V30 51 1 25 48
M  V30 END BOND
M  V30 END CTAB
M  END
>  <Dataset>  (990) 
OralDrugs

>  <Ligand_Instance>  (990) 
nan

>  <PDB_ID>  (990) 
nan

>  <Standardized_SMILES>  (990) 
O=c1n(CCCN2CCN(c3cccc(Cl)c3)CC2)nc2ccccn12

>  <Name>  (990) 
Trazodone

>  <Pocket>  (990) 
nan

>  <ATP_Site>  (990) 
nan

>  <Peripheral>  (990) 
nan

>  <Num_H_Atoms_ProtBoundConf>  (990) 
nan

>  <Num_Resolved_Atoms>  (990) 
nan

>  <Num_Not_Resolved_Atoms>  (990) 
nan

$$$$
CHEMBL1650443
     RDKit          3D

  0  0  0  0  0  0  0  0  0  0999 V3000
M  V30 BEGIN CTAB
M  V30 COUNTS 46 48 0 0 0
M  V30 BEGIN ATOM
M  V30 1 C 2.019001 -5.282812 0.732195 0
M  V30 2 N 1.781253 -3.847214 0.759602 0
M  V30 3 C 2.660053 -3.070548 0.095420 0
M  V30 4 O 3.634328 -3.576352 -0.513238 0
M  V30 5 C 2.396196 -1.694140 0.144458 0
M  V30 6 C 1.293340 -1.170160 0.837578 0
M  V30 7 N 1.315987 0.242691 0.685089 0
M  V30 8 C 0.725826 0.445414 -0.630809 0
M  V30 9 C 0.701459 1.931960 -0.887095 0
M  V30 10 C 1.995412 2.566120 -0.398627 0
M  V30 11 C 2.110785 2.557385 1.082790 0 CFG=1
M  V30 12 N 1.166408 3.485824 1.715103 0
M  V30 13 C 1.838496 1.203247 1.640204 0
M  V30 14 N 0.437765 -1.974119 1.488976 0
M  V30 15 C -0.624060 -1.389926 2.215066 0
M  V30 16 C -1.860153 -1.001317 1.582325 0
M  V30 17 C -2.017322 0.382470 1.347724 0
M  V30 18 C -3.097127 1.007624 0.764465 0
M  V30 19 F -3.152993 2.344516 0.582857 0
M  V30 20 C -4.143522 0.223158 0.360181 0
M  V30 21 C -4.075552 -1.138074 0.550746 0
M  V30 22 C -2.953011 -1.668533 1.143523 0
M  V30 23 C -2.947883 -3.083584 1.347945 0
M  V30 24 N -2.964048 -4.225425 1.515603 0
M  V30 25 C 0.746491 -3.283419 1.403995 0
M  V30 26 O 0.024399 -4.130814 1.976174 0
M  V30 27 H 1.845070 -5.610525 -0.333900 0
M  V30 28 H 3.061196 -5.556280 0.992703 0
M  V30 29 H 1.273066 -5.822971 1.351673 0
M  V30 30 H 3.156530 -1.136739 -0.417916 0
M  V30 31 H -0.231271 -0.000322 -0.809093 0
M  V30 32 H 1.430174 0.008452 -1.383263 0
M  V30 33 H 0.679702 2.083827 -1.985906 0
M  V30 34 H -0.150281 2.461400 -0.448703 0
M  V30 35 H 1.974782 3.623008 -0.743875 0
M  V30 36 H 2.875385 2.069361 -0.821757 0
M  V30 37 H 3.157438 2.847453 1.332733 0
M  V30 38 H 0.507595 3.780804 0.961506 0
M  V30 39 H 0.584872 3.007251 2.437880 0
M  V30 40 H 2.828059 0.756157 1.972386 0
M  V30 41 H 1.209405 1.265637 2.575898 0
M  V30 42 H -0.226626 -0.523657 2.817643 0
M  V30 43 H -0.946445 -2.089661 3.078930 0
M  V30 44 H -1.226134 1.087594 1.639160 0
M  V30 45 H -5.031508 0.615957 -0.106937 0
M  V30 46 H -4.894242 -1.767189 0.236489 0
M  V30 END ATOM
M  V30 BEGIN BOND
M  V30 1 1 1 2
M  V30 2 1 2 3
M  V30 3 2 3 4
M  V30 4 1 3 5
M  V30 5 2 5 6
M  V30 6 1 6 7
M  V30 7 1 7 8
M  V30 8 1 8 9
M  V30 9 1 9 10
M  V30 10 1 10 11
M  V30 11 1 11 12
M  V30 12 1 11 13
M  V30 13 1 6 14
M  V30 14 1 14 15
M  V30 15 1 15 16
M  V30 16 2 16 17
M  V30 17 1 17 18
M  V30 18 1 18 19
M  V30 19 2 18 20
M  V30 20 1 20 21
M  V30 21 2 21 22
M  V30 22 1 22 23
M  V30 23 3 23 24
M  V30 24 1 14 25
M  V30 25 2 25 26
M  V30 26 1 25 2
M  V30 27 1 13 7
M  V30 28 1 22 16
M  V30 29 1 1 27
M  V30 30 1 1 28
M  V30 31 1 1 29
M  V30 32 1 5 30
M  V30 33 1 8 31
M  V30 34 1 8 32
M  V30 35 1 9 33
M  V30 36 1 9 34
M  V30 37 1 10 35
M  V30 38 1 10 36
M  V30 39 1 11 37 CFG=3
M  V30 40 1 12 38
M  V30 41 1 12 39
M  V30 42 1 13 40
M  V30 43 1 13 41
M  V30 44 1 15 42
M  V30 45 1 15 43
M  V30 46 1 17 44
M  V30 47 1 20 45
M  V30 48 1 21 46
M  V30 END BOND
M  V30 END CTAB
M  END
>  <Dataset>  (991) 
OralDrugs

>  <Ligand_Instance>  (991) 
nan

>  <PDB_ID>  (991) 
nan

>  <Standardized_SMILES>  (991) 
Cn1c(=O)cc(N2CCC[C@@H](N)C2)n(Cc2cc(F)ccc2C#N)c1=O

>  <Name>  (991) 
Trelagliptin

>  <Pocket>  (991) 
nan

>  <ATP_Site>  (991) 
nan

>  <Peripheral>  (991) 
nan

>  <Num_H_Atoms_ProtBoundConf>  (991) 
nan

>  <Num_Resolved_Atoms>  (991) 
nan

>  <Num_Not_Resolved_Atoms>  (991) 
nan

$$$$
CHEMBL1237119
     RDKit          3D

  0  0  0  0  0  0  0  0  0  0999 V3000
M  V30 BEGIN CTAB
M  V30 COUNTS 62 64 0 0 0
M  V30 BEGIN ATOM
M  V30 1 C 0.896661 3.421544 1.558403 0
M  V30 2 C 1.290789 1.951068 1.476287 0
M  V30 3 C 1.500355 1.447778 2.876749 0
M  V30 4 C 1.901023 0.017174 2.887991 0
M  V30 5 C 0.850808 -0.868500 2.230098 0
M  V30 6 C -0.432005 -0.759670 2.944646 0 CFG=2
M  V30 7 O -0.086580 -1.139472 4.312399 0
M  V30 8 C -1.603252 -1.556759 2.585069 0
M  V30 9 C -2.450004 -1.649233 1.436970 0
M  V30 10 C -2.127942 -1.974033 0.039518 0 CFG=2
M  V30 11 C -1.277228 -0.993637 -0.668400 0 CFG=1
M  V30 12 C -0.151856 -1.693851 -1.354348 0
M  V30 13 C 0.422831 -0.993930 -2.507147 0
M  V30 14 C 1.781543 -0.912385 -2.728905 0
M  V30 15 C 2.222183 -0.233303 -3.845868 0
M  V30 16 C 1.318050 0.341859 -4.706178 0
M  V30 17 C -0.034078 0.283371 -4.521605 0
M  V30 18 O -1.011153 0.833179 -5.336394 0
M  V30 19 C -0.647973 1.542199 -6.494820 0
M  V30 20 C 0.204165 2.730842 -6.218654 0
M  V30 21 O 0.627957 3.492004 -7.143525 0
M  V30 22 O 0.813049 3.450314 -5.209688 0
M  V30 23 C -0.463023 -0.408900 -3.384260 0
M  V30 24 C -1.908956 -0.544882 -3.062548 0
M  V30 25 C -2.200525 -0.280570 -1.620229 0 CFG=1
M  V30 26 C -3.594497 -0.710100 -1.301737 0
M  V30 27 C -3.435598 -2.082354 -0.756133 0 CFG=1
M  V30 28 O -3.256673 -3.048137 -1.738467 0
M  V30 29 H 1.808695 4.033739 1.398412 0
M  V30 30 H 0.457558 3.637561 2.548641 0
M  V30 31 H 0.138618 3.670898 0.796654 0
M  V30 32 H 2.246507 1.854000 0.935482 0
M  V30 33 H 0.545335 1.366970 0.941341 0
M  V30 34 H 0.657503 1.630789 3.557303 0
M  V30 35 H 2.376496 2.066697 3.275144 0
M  V30 36 H 2.006063 -0.302113 3.955068 0
M  V30 37 H 2.850977 -0.157402 2.327069 0
M  V30 38 H 0.805623 -0.597439 1.193416 0
M  V30 39 H 1.269030 -1.930838 2.272050 0
M  V30 40 H -0.664421 0.334213 3.072670 0
M  V30 41 H -0.674334 -0.638523 4.931782 0
M  V30 42 H -2.332894 -1.344526 3.504000 0
M  V30 43 H -1.294112 -2.662687 2.920895 0
M  V30 44 H -3.333878 -2.359534 1.775767 0
M  V30 45 H -3.106971 -0.666995 1.433630 0
M  V30 46 H -1.642902 -3.023153 -0.014323 0
M  V30 47 H -0.924258 -0.260887 0.065175 0
M  V30 48 H 0.653621 -1.951200 -0.658530 0
M  V30 49 H -0.478321 -2.705666 -1.758719 0
M  V30 50 H 2.446379 -1.390410 -2.008161 0
M  V30 51 H 3.281554 -0.164721 -4.026790 0
M  V30 52 H 1.670489 0.863473 -5.566088 0
M  V30 53 H -1.538226 1.847440 -7.055440 0
M  V30 54 H -0.101504 0.816231 -7.156384 0
M  V30 55 H 0.377663 4.245327 -4.803289 0
M  V30 56 H -2.448886 0.173026 -3.712444 0
M  V30 57 H -2.226912 -1.559082 -3.380031 0
M  V30 58 H -2.120591 0.806805 -1.442072 0
M  V30 59 H -4.065118 -0.091311 -0.494547 0
M  V30 60 H -4.284409 -0.636747 -2.158469 0
M  V30 61 H -4.269388 -2.417958 -0.123214 0
M  V30 62 H -3.944351 -3.045775 -2.426697 0
M  V30 END ATOM
M  V30 BEGIN BOND
M  V30 1 1 1 2
M  V30 2 1 2 3
M  V30 3 1 3 4
M  V30 4 1 4 5
M  V30 5 1 5 6
M  V30 6 1 6 7
M  V30 7 1 6 8
M  V30 8 1 8 9
M  V30 9 1 9 10
M  V30 10 1 10 11
M  V30 11 1 11 12
M  V30 12 1 12 13
M  V30 13 2 13 14
M  V30 14 1 14 15
M  V30 15 2 15 16
M  V30 16 1 16 17
M  V30 17 1 17 18
M  V30 18 1 18 19
M  V30 19 1 19 20
M  V30 20 2 20 21
M  V30 21 1 20 22
M  V30 22 2 17 23
M  V30 23 1 23 24
M  V30 24 1 24 25
M  V30 25 1 25 26
M  V30 26 1 26 27
M  V30 27 1 27 28
M  V30 28 1 27 10
M  V30 29 1 25 11
M  V30 30 1 23 13
M  V30 31 1 1 29
M  V30 32 1 1 30
M  V30 33 1 1 31
M  V30 34 1 2 32
M  V30 35 1 2 33
M  V30 36 1 3 34
M  V30 37 1 3 35
M  V30 38 1 4 36
M  V30 39 1 4 37
M  V30 40 1 5 38
M  V30 41 1 5 39
M  V30 42 1 6 40 CFG=1
M  V30 43 1 7 41
M  V30 44 1 8 42
M  V30 45 1 8 43
M  V30 46 1 9 44
M  V30 47 1 9 45
M  V30 48 1 10 46 CFG=1
M  V30 49 1 11 47 CFG=1
M  V30 50 1 12 48
M  V30 51 1 12 49
M  V30 52 1 14 50
M  V30 53 1 15 51
M  V30 54 1 16 52
M  V30 55 1 19 53
M  V30 56 1 19 54
M  V30 57 1 22 55
M  V30 58 1 24 56
M  V30 59 1 24 57
M  V30 60 1 25 58 CFG=3
M  V30 61 1 26 59
M  V30 62 1 26 60
M  V30 63 1 27 61 CFG=1
M  V30 64 1 28 62
M  V30 END BOND
M  V30 END CTAB
M  END
>  <Dataset>  (992) 
OralDrugs

>  <Ligand_Instance>  (992) 
nan

>  <PDB_ID>  (992) 
nan

>  <Standardized_SMILES>  (992) 
CCCCC[C@H](O)CC[C@@H]1[C@H]2Cc3cccc(OCC(=O)O)c3C[C@H]2C[C@H]1O

>  <Name>  (992) 
Treprostinil

>  <Pocket>  (992) 
nan

>  <ATP_Site>  (992) 
nan

>  <Peripheral>  (992) 
nan

>  <Num_H_Atoms_ProtBoundConf>  (992) 
nan

>  <Num_Resolved_Atoms>  (992) 
nan

>  <Num_Not_Resolved_Atoms>  (992) 
nan

$$$$
CHEMBL38
     RDKit          3D

  0  0  0  0  0  0  0  0  0  0999 V3000
M  V30 BEGIN CTAB
M  V30 COUNTS 50 50 0 0 0
M  V30 BEGIN ATOM
M  V30 1 C 3.503848 -1.495365 0.102406 0
M  V30 2 C 3.925295 -0.437014 1.070682 0
M  V30 3 C 2.959460 0.367604 1.477195 0
M  V30 4 C 1.549803 0.446913 1.181033 0
M  V30 5 C 0.608779 -0.109974 0.488264 0
M  V30 6 C -0.795690 0.198741 0.379485 0
M  V30 7 C -1.541887 1.280305 1.064444 0
M  V30 8 C -1.501470 -0.573152 -0.426923 0
M  V30 9 C -2.919434 -0.359210 -0.615771 0
M  V30 10 C -3.666596 -1.104123 -1.411266 0
M  V30 11 C -5.109084 -0.871335 -1.590938 0
M  V30 12 C -5.656910 0.252945 -0.815080 0
M  V30 13 C -5.621441 -1.743990 -2.431469 0
M  V30 14 C -7.038846 -1.594446 -2.672756 0
M  V30 15 O -7.961235 -0.839074 -2.295398 0
M  V30 16 O -8.293599 -1.804067 -3.164078 0
M  V30 17 C 3.535493 1.380665 2.440408 0
M  V30 18 C 2.433607 2.187459 3.093622 0
M  V30 19 C 4.429518 2.295806 1.655585 0
M  V30 20 C 4.247854 0.596662 3.509850 0
M  V30 21 C 5.485427 -0.087127 2.967277 0
M  V30 22 C 5.347370 -0.374388 1.489620 0
M  V30 23 H 4.433717 -2.080649 -0.183918 0
M  V30 24 H 2.834200 -2.244809 0.509301 0
M  V30 25 H 3.191943 -1.052755 -0.863761 0
M  V30 26 H 1.054110 1.263414 1.717610 0
M  V30 27 H 1.039725 -0.915842 -0.054963 0
M  V30 28 H -2.266485 0.882464 1.804263 0
M  V30 29 H -0.826229 1.965796 1.557369 0
M  V30 30 H -2.084301 1.932953 0.328164 0
M  V30 31 H -1.026889 -1.396466 -0.973388 0
M  V30 32 H -3.408751 0.446500 -0.087362 0
M  V30 33 H -3.073569 -1.895709 -1.902139 0
M  V30 34 H -5.370665 0.049655 0.257128 0
M  V30 35 H -6.736112 0.385160 -0.904370 0
M  V30 36 H -5.104494 1.210849 -1.038328 0
M  V30 37 H -5.067850 -2.522599 -2.922690 0
M  V30 38 H -8.505776 -2.554985 -3.823337 0
M  V30 39 H 2.947750 2.782464 3.898279 0
M  V30 40 H 2.002624 2.928476 2.403114 0
M  V30 41 H 1.722027 1.548362 3.618641 0
M  V30 42 H 4.084558 3.368209 1.723443 0
M  V30 43 H 5.466745 2.292311 2.074274 0
M  V30 44 H 4.439374 2.090679 0.559991 0
M  V30 45 H 3.541827 -0.190305 3.845772 0
M  V30 46 H 4.517370 1.191261 4.388958 0
M  V30 47 H 5.650612 -0.995479 3.581929 0
M  V30 48 H 6.346477 0.586965 3.153175 0
M  V30 49 H 5.974063 0.283428 0.877852 0
M  V30 50 H 5.769785 -1.399434 1.352726 0
M  V30 END ATOM
M  V30 BEGIN BOND
M  V30 1 1 1 2
M  V30 2 2 2 3
M  V30 3 1 3 4
M  V30 4 2 4 5
M  V30 5 1 5 6
M  V30 6 1 6 7
M  V30 7 2 6 8
M  V30 8 1 8 9
M  V30 9 2 9 10
M  V30 10 1 10 11
M  V30 11 1 11 12
M  V30 12 2 11 13
M  V30 13 1 13 14
M  V30 14 2 14 15
M  V30 15 1 14 16
M  V30 16 1 3 17
M  V30 17 1 17 18
M  V30 18 1 17 19
M  V30 19 1 17 20
M  V30 20 1 20 21
M  V30 21 1 21 22
M  V30 22 1 22 2
M  V30 23 1 1 23
M  V30 24 1 1 24
M  V30 25 1 1 25
M  V30 26 1 4 26
M  V30 27 1 5 27
M  V30 28 1 7 28
M  V30 29 1 7 29
M  V30 30 1 7 30
M  V30 31 1 8 31
M  V30 32 1 9 32
M  V30 33 1 10 33
M  V30 34 1 12 34
M  V30 35 1 12 35
M  V30 36 1 12 36
M  V30 37 1 13 37
M  V30 38 1 16 38
M  V30 39 1 18 39
M  V30 40 1 18 40
M  V30 41 1 18 41
M  V30 42 1 19 42
M  V30 43 1 19 43
M  V30 44 1 19 44
M  V30 45 1 20 45
M  V30 46 1 20 46
M  V30 47 1 21 47
M  V30 48 1 21 48
M  V30 49 1 22 49
M  V30 50 1 22 50
M  V30 END BOND
M  V30 END CTAB
M  END
>  <Dataset>  (993) 
OralDrugs

>  <Ligand_Instance>  (993) 
nan

>  <PDB_ID>  (993) 
nan

>  <Standardized_SMILES>  (993) 
CC1=C(/C=C/C(C)=C/C=C/C(C)=C/C(=O)O)C(C)(C)CCC1

>  <Name>  (993) 
Tretinoin

>  <Pocket>  (993) 
nan

>  <ATP_Site>  (993) 
nan

>  <Peripheral>  (993) 
nan

>  <Num_H_Atoms_ProtBoundConf>  (993) 
nan

>  <Num_Resolved_Atoms>  (993) 
nan

>  <Num_Not_Resolved_Atoms>  (993) 
nan

$$$$
CHEMBL1451
     RDKit          3D

  0  0  0  0  0  0  0  0  0  0999 V3000
M  V30 BEGIN CTAB
M  V30 COUNTS 55 58 0 0 0
M  V30 BEGIN ATOM
M  V30 1 C 1.409653 -1.360399 3.200286 0
M  V30 2 C 2.191237 -0.786193 2.054962 0 CFG=2
M  V30 3 C 3.385791 -1.625398 1.869320 0
M  V30 4 C 4.677442 -1.396381 2.047022 0
M  V30 5 C 4.985712 -0.051354 2.519154 0
M  V30 6 O 6.145952 0.304754 2.728883 0
M  V30 7 C 3.925276 0.915053 2.757684 0
M  V30 8 C 2.650557 0.548319 2.535406 0
M  V30 9 C 1.600032 1.529834 2.779586 0
M  V30 10 C 0.453232 1.514996 1.810776 0
M  V30 11 C 0.131406 0.146572 1.253690 0 CFG=1
M  V30 12 C -0.671382 0.362807 0.015678 0 CFG=2
M  V30 13 C -1.838593 1.248594 0.085229 0
M  V30 14 C -2.954835 0.443995 -0.547562 0 CFG=1
M  V30 15 O -3.799904 1.226110 -1.318343 0
M  V30 16 C -2.184758 -0.557053 -1.426347 0 CFG=2
M  V30 17 O -1.635469 0.182329 -2.469801 0
M  V30 18 C -3.062470 -1.623828 -1.911217 0
M  V30 19 O -3.101276 -1.608415 -3.150648 0
M  V30 20 C -3.982326 -2.754236 -2.177234 0
M  V30 21 O -4.176025 -2.923846 -3.567868 0
M  V30 22 C -1.163686 -1.017437 -0.425571 0 CFG=2
M  V30 23 C -1.858024 -1.760085 0.647384 0
M  V30 24 C 0.043425 -1.656341 -1.007517 0
M  V30 25 C 1.186912 -1.732056 -0.062822 0 CFG=2
M  V30 26 O 1.010909 -2.947687 0.640986 0
M  V30 27 C 1.407802 -0.555037 0.812936 0 CFG=2
M  V30 28 F 2.089139 0.407548 0.082560 0
M  V30 29 H 0.754143 -0.640570 3.724126 0
M  V30 30 H 0.814635 -2.243623 2.945581 0
M  V30 31 H 2.151144 -1.710638 3.955107 0
M  V30 32 H 3.145715 -2.630780 1.516251 0
M  V30 33 H 5.411064 -2.138297 1.857556 0
M  V30 34 H 4.118906 1.921211 3.107968 0
M  V30 35 H 1.127736 1.361150 3.792502 0
M  V30 36 H 2.034446 2.544060 2.850899 0
M  V30 37 H 0.683682 2.227700 0.993831 0
M  V30 38 H -0.497000 1.881791 2.289498 0
M  V30 39 H -0.359468 -0.432139 2.028941 0
M  V30 40 H 0.033691 0.749401 -0.750914 0
M  V30 41 H -2.113549 1.644904 1.073099 0
M  V30 42 H -1.728251 2.146581 -0.591786 0
M  V30 43 H -3.478217 -0.055137 0.289072 0
M  V30 44 H -4.740938 1.028297 -1.140444 0
M  V30 45 H -2.128810 0.054382 -3.311088 0
M  V30 46 H -4.989816 -2.607489 -1.751740 0
M  V30 47 H -3.626417 -3.722383 -1.773314 0
M  V30 48 H -4.937349 -3.540740 -3.633505 0
M  V30 49 H -2.228512 -1.137279 1.484204 0
M  V30 50 H -2.787092 -2.227040 0.214960 0
M  V30 51 H -1.271815 -2.619244 1.008038 0
M  V30 52 H -0.124228 -2.644902 -1.449343 0
M  V30 53 H 0.359681 -1.005800 -1.870491 0
M  V30 54 H 2.106954 -1.907723 -0.662350 0
M  V30 55 H 1.349014 -3.711790 0.133979 0
M  V30 END ATOM
M  V30 BEGIN BOND
M  V30 1 1 2 1 CFG=1
M  V30 2 1 2 3
M  V30 3 2 3 4
M  V30 4 1 4 5
M  V30 5 2 5 6
M  V30 6 1 5 7
M  V30 7 2 7 8
M  V30 8 1 8 9
M  V30 9 1 9 10
M  V30 10 1 10 11
M  V30 11 1 11 12
M  V30 12 1 12 13
M  V30 13 1 13 14
M  V30 14 1 14 15
M  V30 15 1 14 16
M  V30 16 1 16 17 CFG=3
M  V30 17 1 16 18
M  V30 18 2 18 19
M  V30 19 1 18 20
M  V30 20 1 20 21
M  V30 21 1 16 22
M  V30 22 1 22 23 CFG=1
M  V30 23 1 22 24
M  V30 24 1 24 25
M  V30 25 1 25 26
M  V30 26 1 25 27
M  V30 27 1 27 28 CFG=3
M  V30 28 1 8 2
M  V30 29 1 27 11
M  V30 30 1 27 2
M  V30 31 1 22 12
M  V30 32 1 1 29
M  V30 33 1 1 30
M  V30 34 1 1 31
M  V30 35 1 3 32
M  V30 36 1 4 33
M  V30 37 1 7 34
M  V30 38 1 9 35
M  V30 39 1 9 36
M  V30 40 1 10 37
M  V30 41 1 10 38
M  V30 42 1 11 39 CFG=1
M  V30 43 1 12 40 CFG=3
M  V30 44 1 13 41
M  V30 45 1 13 42
M  V30 46 1 14 43 CFG=1
M  V30 47 1 15 44
M  V30 48 1 17 45
M  V30 49 1 20 46
M  V30 50 1 20 47
M  V30 51 1 21 48
M  V30 52 1 23 49
M  V30 53 1 23 50
M  V30 54 1 23 51
M  V30 55 1 24 52
M  V30 56 1 24 53
M  V30 57 1 25 54 CFG=3
M  V30 58 1 26 55
M  V30 END BOND
M  V30 END CTAB
M  END
>  <Dataset>  (994) 
OralDrugs

>  <Ligand_Instance>  (994) 
nan

>  <PDB_ID>  (994) 
nan

>  <Standardized_SMILES>  (994) 
C[C@]12C=CC(=O)C=C1CC[C@H]1[C@@H]3C[C@@H](O)[C@](O)(C(=O)CO)[C@@]3(C)C[C@H](O)[C@@]12F

>  <Name>  (994) 
Triamcinolone

>  <Pocket>  (994) 
nan

>  <ATP_Site>  (994) 
nan

>  <Peripheral>  (994) 
nan

>  <Num_H_Atoms_ProtBoundConf>  (994) 
nan

>  <Num_Resolved_Atoms>  (994) 
nan

>  <Num_Not_Resolved_Atoms>  (994) 
nan

$$$$
CHEMBL585
     RDKit          3D

  0  0  0  0  0  0  0  0  0  0999 V3000
M  V30 BEGIN CTAB
M  V30 COUNTS 30 32 0 0 0
M  V30 BEGIN ATOM
M  V30 1 N -2.584408 -1.717070 5.625298 0
M  V30 2 C -1.660183 -1.595556 4.550869 0
M  V30 3 N -0.376350 -2.024233 4.589654 0
M  V30 4 C 0.434635 -1.862506 3.505614 0
M  V30 5 N 1.770072 -2.336513 3.617972 0
M  V30 6 C -0.063249 -1.259115 2.370176 0
M  V30 7 N 0.737462 -1.099769 1.300699 0
M  V30 8 C 0.291580 -0.518092 0.177954 0
M  V30 9 C 1.072904 -0.294289 -1.040787 0
M  V30 10 C 1.866658 -1.309409 -1.534413 0
M  V30 11 C 2.611925 -1.100976 -2.693885 0
M  V30 12 C 2.506814 0.138747 -3.290816 0
M  V30 13 C 1.724030 1.178839 -2.827378 0
M  V30 14 C 0.987206 0.941612 -1.662373 0
M  V30 15 C -1.036675 -0.078058 0.146729 0
M  V30 16 N -1.675553 0.560485 -0.962428 0
M  V30 17 N -1.869577 -0.227258 1.216781 0
M  V30 18 C -1.377676 -0.816670 2.321359 0
M  V30 19 N -2.110567 -1.013053 3.429744 0
M  V30 20 H -2.641767 -2.594711 6.211844 0
M  V30 21 H -3.229147 -0.917844 5.846654 0
M  V30 22 H 2.330491 -1.447375 3.508273 0
M  V30 23 H 2.765756 -2.026029 3.606035 0
M  V30 24 H 1.928339 -2.283801 -1.036188 0
M  V30 25 H 3.260492 -1.869899 -3.133483 0
M  V30 26 H 3.082369 0.334551 -4.207126 0
M  V30 27 H 1.705924 2.117152 -3.364474 0
M  V30 28 H 0.360489 1.757272 -1.281121 0
M  V30 29 H -1.971297 1.539667 -0.727912 0
M  V30 30 H -1.637824 -0.193241 -1.680367 0
M  V30 END ATOM
M  V30 BEGIN BOND
M  V30 1 1 1 2
M  V30 2 2 2 3
M  V30 3 1 3 4
M  V30 4 1 4 5
M  V30 5 2 4 6
M  V30 6 1 6 7
M  V30 7 2 7 8
M  V30 8 1 8 9
M  V30 9 2 9 10
M  V30 10 1 10 11
M  V30 11 2 11 12
M  V30 12 1 12 13
M  V30 13 2 13 14
M  V30 14 1 8 15
M  V30 15 1 15 16
M  V30 16 2 15 17
M  V30 17 1 17 18
M  V30 18 2 18 19
M  V30 19 1 19 2
M  V30 20 1 18 6
M  V30 21 1 14 9
M  V30 22 1 1 20
M  V30 23 1 1 21
M  V30 24 1 5 22
M  V30 25 1 5 23
M  V30 26 1 10 24
M  V30 27 1 11 25
M  V30 28 1 12 26
M  V30 29 1 13 27
M  V30 30 1 14 28
M  V30 31 1 16 29
M  V30 32 1 16 30
M  V30 END BOND
M  V30 END CTAB
M  END
>  <Dataset>  (995) 
OralDrugs

>  <Ligand_Instance>  (995) 
nan

>  <PDB_ID>  (995) 
nan

>  <Standardized_SMILES>  (995) 
Nc1nc(N)c2nc(-c3ccccc3)c(N)nc2n1

>  <Name>  (995) 
Triamterene

>  <Pocket>  (995) 
nan

>  <ATP_Site>  (995) 
nan

>  <Peripheral>  (995) 
nan

>  <Num_H_Atoms_ProtBoundConf>  (995) 
nan

>  <Num_Resolved_Atoms>  (995) 
nan

>  <Num_Not_Resolved_Atoms>  (995) 
nan

$$$$
CHEMBL1054
     RDKit          3D

  0  0  0  0  0  0  0  0  0  0999 V3000
M  V30 BEGIN CTAB
M  V30 COUNTS 28 29 0 0 0
M  V30 BEGIN ATOM
M  V30 1 N 3.235452 -2.731978 3.785486 0
M  V30 2 S 2.760471 -3.336744 2.229121 0
M  V30 3 O 3.965582 -3.681333 1.430798 0
M  V30 4 O 1.865336 -4.517719 2.456568 0
M  V30 5 C 1.830165 -2.052523 1.444477 0
M  V30 6 C 0.513393 -2.251162 1.059267 0
M  V30 7 C -0.111362 -1.177297 0.456311 0
M  V30 8 C 0.514294 0.037187 0.236425 0
M  V30 9 C 1.828866 0.203609 0.632458 0
M  V30 10 C 2.509418 -0.845219 1.245755 0
M  V30 11 Cl 4.172857 -0.629612 1.745063 0
M  V30 12 N -0.237271 1.052729 -0.389522 0
M  V30 13 C -1.599579 0.977973 -0.830497 0
M  V30 14 C -2.180442 2.388653 -0.717299 0
M  V30 15 Cl -2.086160 2.919900 0.990366 0
M  V30 16 Cl -1.130704 3.466131 -1.654938 0
M  V30 17 N -2.453986 0.116646 -0.080341 0
M  V30 18 S -1.796673 -1.498018 -0.012772 0
M  V30 19 O -2.500134 -2.323846 0.991854 0
M  V30 20 O -1.881020 -2.035214 -1.404993 0
M  V30 21 H 2.606252 -3.097409 4.528684 0
M  V30 22 H 3.134154 -1.680412 3.833654 0
M  V30 23 H 0.031720 -3.206180 1.235766 0
M  V30 24 H 2.290889 1.164526 0.447029 0
M  V30 25 H 0.306636 1.952035 -0.528304 0
M  V30 26 H -1.699215 0.672362 -1.896933 0
M  V30 27 H -3.241174 2.410165 -1.047779 0
M  V30 28 H -2.442159 0.449764 0.916904 0
M  V30 END ATOM
M  V30 BEGIN BOND
M  V30 1 1 1 2
M  V30 2 2 2 3
M  V30 3 2 2 4
M  V30 4 1 2 5
M  V30 5 2 5 6
M  V30 6 1 6 7
M  V30 7 2 7 8
M  V30 8 1 8 9
M  V30 9 2 9 10
M  V30 10 1 10 11
M  V30 11 1 8 12
M  V30 12 1 12 13
M  V30 13 1 13 14
M  V30 14 1 14 15
M  V30 15 1 14 16
M  V30 16 1 13 17
M  V30 17 1 17 18
M  V30 18 2 18 19
M  V30 19 2 18 20
M  V30 20 1 10 5
M  V30 21 1 18 7
M  V30 22 1 1 21
M  V30 23 1 1 22
M  V30 24 1 6 23
M  V30 25 1 9 24
M  V30 26 1 12 25
M  V30 27 1 13 26
M  V30 28 1 14 27
M  V30 29 1 17 28
M  V30 END BOND
M  V30 END CTAB
M  END
>  <Dataset>  (996) 
OralDrugs

>  <Ligand_Instance>  (996) 
nan

>  <PDB_ID>  (996) 
nan

>  <Standardized_SMILES>  (996) 
NS(=O)(=O)c1cc2c(cc1Cl)NC(C(Cl)Cl)NS2(=O)=O

>  <Name>  (996) 
Trichlormethiazide

>  <Pocket>  (996) 
nan

>  <ATP_Site>  (996) 
nan

>  <Peripheral>  (996) 
nan

>  <Num_H_Atoms_ProtBoundConf>  (996) 
nan

>  <Num_Resolved_Atoms>  (996) 
nan

>  <Num_Not_Resolved_Atoms>  (996) 
nan

$$$$
CHEMBL1086440
     RDKit          3D

  0  0  0  0  0  0  0  0  0  0999 V3000
M  V30 BEGIN CTAB
M  V30 COUNTS 30 32 0 0 0
M  V30 BEGIN ATOM
M  V30 1 C 1.030131 -5.476002 4.389802 0
M  V30 2 S 1.343426 -5.504590 2.596053 0
M  V30 3 C 0.572221 -4.080623 1.841675 0
M  V30 4 N -0.698732 -4.113114 1.380511 0
M  V30 5 C -1.035709 -2.916300 0.862025 0
M  V30 6 C -2.138667 -2.343236 0.264195 0
M  V30 7 C -2.113853 -1.010331 -0.164949 0
M  V30 8 Cl -3.630734 -0.490666 -0.898837 0
M  V30 9 C -0.962629 -0.229712 0.005601 0
M  V30 10 O -1.197456 1.037511 -0.500485 0
M  V30 11 C -0.213615 2.011356 -0.500272 0
M  V30 12 C -0.227252 3.223345 0.156954 0
M  V30 13 C 0.813935 4.113429 0.079776 0
M  V30 14 C 1.929848 3.802854 -0.681084 0
M  V30 15 C 1.958130 2.578448 -1.353134 0
M  V30 16 Cl 3.431189 2.334446 -2.268466 0
M  V30 17 C 0.905169 1.694381 -1.266809 0
M  V30 18 Cl 1.187448 0.241432 -2.223387 0
M  V30 19 C 0.135192 -0.805662 0.602960 0
M  V30 20 C 0.076958 -2.117938 1.012689 0
M  V30 21 N 1.055620 -2.826672 1.608974 0
M  V30 22 H 0.779796 -4.457918 4.752787 0
M  V30 23 H 0.087086 -6.076586 4.536230 0
M  V30 24 H 1.875691 -5.904769 4.948437 0
M  V30 25 H -2.995273 -2.994239 0.160372 0
M  V30 26 H -1.149308 3.381168 0.732662 0
M  V30 27 H 0.697592 5.040481 0.638884 0
M  V30 28 H 2.713661 4.548060 -0.698606 0
M  V30 29 H 0.947003 -0.133102 0.692485 0
M  V30 30 H 2.026008 -2.542591 1.875862 0
M  V30 END ATOM
M  V30 BEGIN BOND
M  V30 1 1 1 2
M  V30 2 1 2 3
M  V30 3 2 3 4
M  V30 4 1 4 5
M  V30 5 2 5 6
M  V30 6 1 6 7
M  V30 7 1 7 8
M  V30 8 2 7 9
M  V30 9 1 9 10
M  V30 10 1 10 11
M  V30 11 2 11 12
M  V30 12 1 12 13
M  V30 13 2 13 14
M  V30 14 1 14 15
M  V30 15 1 15 16
M  V30 16 2 15 17
M  V30 17 1 17 18
M  V30 18 1 9 19
M  V30 19 2 19 20
M  V30 20 1 20 21
M  V30 21 1 21 3
M  V30 22 1 20 5
M  V30 23 1 17 11
M  V30 24 1 1 22
M  V30 25 1 1 23
M  V30 26 1 1 24
M  V30 27 1 6 25
M  V30 28 1 12 26
M  V30 29 1 13 27
M  V30 30 1 14 28
M  V30 31 1 19 29
M  V30 32 1 21 30
M  V30 END BOND
M  V30 END CTAB
M  END
>  <Dataset>  (997) 
OralDrugs

>  <Ligand_Instance>  (997) 
nan

>  <PDB_ID>  (997) 
nan

>  <Standardized_SMILES>  (997) 
CSc1nc2cc(Cl)c(Oc3cccc(Cl)c3Cl)cc2[nH]1

>  <Name>  (997) 
Triclabendazole

>  <Pocket>  (997) 
nan

>  <ATP_Site>  (997) 
nan

>  <Peripheral>  (997) 
nan

>  <Num_H_Atoms_ProtBoundConf>  (997) 
nan

>  <Num_Resolved_Atoms>  (997) 
nan

>  <Num_Not_Resolved_Atoms>  (997) 
nan

$$$$
CHEMBL1201317
     RDKit          3D

  0  0  0  0  0  0  0  0  0  0999 V3000
M  V30 BEGIN CTAB
M  V30 COUNTS 14 13 0 0 0
M  V30 BEGIN ATOM
M  V30 1 O 1.209336 0.222883 3.183075 0
M  V30 2 P 0.779974 -0.828053 2.155158 0
M  V30 3 O 1.766970 -2.174318 2.434208 0
M  V30 4 O -0.811918 -1.322643 2.439606 0
M  V30 5 O 1.040707 -0.308804 0.594323 0
M  V30 6 C 1.888006 0.772134 0.461991 0
M  V30 7 C 2.078467 1.188122 -0.979123 0
M  V30 8 Cl 0.482381 1.633652 -1.655226 0
M  V30 9 Cl 3.105373 2.639617 -1.019039 0
M  V30 10 Cl 2.849108 -0.058458 -1.967871 0
M  V30 11 H 1.254994 -3.017845 2.418707 0
M  V30 12 H -1.301660 -1.436595 1.584408 0
M  V30 13 H 2.893675 0.428632 0.824494 0
M  V30 14 H 1.592442 1.660931 1.032479 0
M  V30 END ATOM
M  V30 BEGIN BOND
M  V30 1 2 1 2
M  V30 2 1 2 3
M  V30 3 1 2 4
M  V30 4 1 2 5
M  V30 5 1 5 6
M  V30 6 1 6 7
M  V30 7 1 7 8
M  V30 8 1 7 9
M  V30 9 1 7 10
M  V30 10 1 3 11
M  V30 11 1 4 12
M  V30 12 1 6 13
M  V30 13 1 6 14
M  V30 END BOND
M  V30 END CTAB
M  END
>  <Dataset>  (998) 
OralDrugs

>  <Ligand_Instance>  (998) 
nan

>  <PDB_ID>  (998) 
nan

>  <Standardized_SMILES>  (998) 
O=P(O)(O)OCC(Cl)(Cl)Cl

>  <Name>  (998) 
Triclofos

>  <Pocket>  (998) 
nan

>  <ATP_Site>  (998) 
nan

>  <Peripheral>  (998) 
nan

>  <Num_H_Atoms_ProtBoundConf>  (998) 
nan

>  <Num_Resolved_Atoms>  (998) 
nan

>  <Num_Not_Resolved_Atoms>  (998) 
nan

$$$$
CHEMBL1201354
     RDKit          3D

  0  0  0  0  0  0  0  0  0  0999 V3000
M  V30 BEGIN CTAB
M  V30 COUNTS 59 60 0 0 0
M  V30 BEGIN ATOM
M  V30 1 C 2.046263 -1.782437 4.913292 0
M  V30 2 C 1.945482 -0.873633 3.735369 0
M  V30 3 N 1.449612 -1.601004 2.555873 0 CHG=1 VAL=4
M  V30 4 C 0.345157 -2.468956 2.922677 0
M  V30 5 C -0.896559 -1.697111 3.226479 0
M  V30 6 C 2.569903 -2.316204 2.048753 0
M  V30 7 C 2.268122 -3.725964 1.609568 0
M  V30 8 C 0.937623 -0.588254 1.669739 0
M  V30 9 C 0.567511 -1.061636 0.306665 0
M  V30 10 C 0.031936 0.076681 -0.573085 0
M  V30 11 O 1.127339 0.993294 -0.615870 0
M  V30 12 C -0.986534 0.816737 0.154494 0
M  V30 13 C -0.707948 1.920044 0.981575 0
M  V30 14 C -1.619524 2.651575 1.685259 0
M  V30 15 C -2.943598 2.315971 1.609299 0
M  V30 16 C -3.306093 1.252905 0.825752 0
M  V30 17 C -2.337301 0.550990 0.137188 0
M  V30 18 C -0.164391 -0.313558 -1.970643 0
M  V30 19 C -0.696375 0.843656 -2.772490 0
M  V30 20 C -1.494765 0.427078 -3.982269 0
M  V30 21 C -0.730890 -0.721140 -4.610112 0
M  V30 22 C -0.968150 -1.907754 -3.705623 0
M  V30 23 C -0.762653 -1.650766 -2.256824 0
M  V30 24 H 2.805660 -1.388850 5.645734 0
M  V30 25 H 1.090141 -2.011331 5.415337 0
M  V30 26 H 2.472846 -2.747785 4.563613 0
M  V30 27 H 2.979412 -0.538168 3.495982 0
M  V30 28 H 1.360429 0.042215 3.913608 0
M  V30 29 H 0.635725 -3.127631 3.754719 0
M  V30 30 H 0.126464 -3.060760 1.988227 0
M  V30 31 H -0.779799 -0.817702 3.866219 0
M  V30 32 H -1.449740 -1.379032 2.318660 0
M  V30 33 H -1.613954 -2.384584 3.757874 0
M  V30 34 H 3.413461 -2.407838 2.769328 0
M  V30 35 H 3.043075 -1.785276 1.178866 0
M  V30 36 H 1.575225 -3.818311 0.763775 0
M  V30 37 H 1.925030 -4.350592 2.453942 0
M  V30 38 H 3.235465 -4.168629 1.278040 0
M  V30 39 H 1.721627 0.218330 1.559653 0
M  V30 40 H 0.109587 -0.065313 2.192163 0
M  V30 41 H 1.497253 -1.498734 -0.147154 0
M  V30 42 H -0.152892 -1.877435 0.349650 0
M  V30 43 H 1.925193 0.433347 -0.820860 0
M  V30 44 H 0.343453 2.232354 1.077919 0
M  V30 45 H -1.299265 3.485522 2.294810 0
M  V30 46 H -3.639541 2.896627 2.163992 0
M  V30 47 H -4.357044 1.004030 0.779180 0
M  V30 48 H -2.720952 -0.255557 -0.442496 0
M  V30 49 H 0.888578 -0.443533 -2.394956 0
M  V30 50 H 0.098640 1.516846 -3.165376 0
M  V30 51 H -1.287692 1.555837 -2.122254 0
M  V30 52 H -2.490910 0.024881 -3.725291 0
M  V30 53 H -1.584391 1.292526 -4.658083 0
M  V30 54 H -1.145196 -0.988787 -5.609781 0
M  V30 55 H 0.331295 -0.418715 -4.656059 0
M  V30 56 H -0.361589 -2.727803 -4.143486 0
M  V30 57 H -2.031152 -2.221338 -3.924508 0
M  V30 58 H -1.657540 -1.935976 -1.718048 0
M  V30 59 H -0.012200 -2.438284 -1.938459 0
M  V30 END ATOM
M  V30 BEGIN BOND
M  V30 1 1 1 2
M  V30 2 1 2 3
M  V30 3 1 3 4
M  V30 4 1 4 5
M  V30 5 1 3 6
M  V30 6 1 6 7
M  V30 7 1 3 8
M  V30 8 1 8 9
M  V30 9 1 9 10
M  V30 10 1 10 11
M  V30 11 1 10 12
M  V30 12 2 12 13
M  V30 13 1 13 14
M  V30 14 2 14 15
M  V30 15 1 15 16
M  V30 16 2 16 17
M  V30 17 1 10 18
M  V30 18 1 18 19
M  V30 19 1 19 20
M  V30 20 1 20 21
M  V30 21 1 21 22
M  V30 22 1 22 23
M  V30 23 1 17 12
M  V30 24 1 23 18
M  V30 25 1 1 24
M  V30 26 1 1 25
M  V30 27 1 1 26
M  V30 28 1 2 27
M  V30 29 1 2 28
M  V30 30 1 4 29
M  V30 31 1 4 30
M  V30 32 1 5 31
M  V30 33 1 5 32
M  V30 34 1 5 33
M  V30 35 1 6 34
M  V30 36 1 6 35
M  V30 37 1 7 36
M  V30 38 1 7 37
M  V30 39 1 7 38
M  V30 40 1 8 39
M  V30 41 1 8 40
M  V30 42 1 9 41
M  V30 43 1 9 42
M  V30 44 1 11 43
M  V30 45 1 13 44
M  V30 46 1 14 45
M  V30 47 1 15 46
M  V30 48 1 16 47
M  V30 49 1 17 48
M  V30 50 1 18 49
M  V30 51 1 19 50
M  V30 52 1 19 51
M  V30 53 1 20 52
M  V30 54 1 20 53
M  V30 55 1 21 54
M  V30 56 1 21 55
M  V30 57 1 22 56
M  V30 58 1 22 57
M  V30 59 1 23 58
M  V30 60 1 23 59
M  V30 END BOND
M  V30 END CTAB
M  END
>  <Dataset>  (999) 
OralDrugs

>  <Ligand_Instance>  (999) 
nan

>  <PDB_ID>  (999) 
nan

>  <Standardized_SMILES>  (999) 
CC[N+](CC)(CC)CCC(O)(c1ccccc1)C1CCCCC1

>  <Name>  (999) 
Tridihexethyl

>  <Pocket>  (999) 
nan

>  <ATP_Site>  (999) 
nan

>  <Peripheral>  (999) 
nan

>  <Num_H_Atoms_ProtBoundConf>  (999) 
nan

>  <Num_Resolved_Atoms>  (999) 
nan

>  <Num_Not_Resolved_Atoms>  (999) 
nan

$$$$
